
---------- Begin Simulation Statistics ----------
simSeconds                                   0.017587                       # Number of seconds simulated (Second)
simTicks                                  17586670000                       # Number of ticks simulated (Tick)
finalTick                                 17586670000                       # Number of ticks from beginning of simulation (restored from checkpoints and never reset) (Tick)
simFreq                                  1000000000000                       # The number of ticks per simulated second ((Tick/Second))
hostSeconds                                    185.64                       # Real time elapsed on the host (Second)
hostTickRate                                 94737886                       # The number of ticks simulated per host second (ticks/s) ((Tick/Second))
hostMemory                                     667072                       # Number of bytes of host memory used (Byte)
simInsts                                     11220003                       # Number of instructions simulated (Count)
simOps                                       22366450                       # Number of ops (including micro ops) simulated (Count)
hostInstRate                                    60441                       # Simulator instruction rate (inst/s) ((Count/Second))
hostOpRate                                     120486                       # Simulator op (including micro ops) rate (op/s) ((Count/Second))
system.clk_domain.clock                          1000                       # Clock period in ticks (Tick)
system.cpu.numCycles                         17586671                       # Number of cpu cycles simulated (Cycle)
system.cpu.numWorkItemsStarted                      0                       # Number of work items this cpu started (Count)
system.cpu.numWorkItemsCompleted                    0                       # Number of work items this cpu completed (Count)
system.cpu.instsAdded                        22698035                       # Number of instructions added to the IQ (excludes non-spec) (Count)
system.cpu.nonSpecInstsAdded                        7                       # Number of non-speculative instructions added to the IQ (Count)
system.cpu.instsIssued                       30322022                       # Number of instructions issued (Count)
system.cpu.squashedInstsIssued                  28680                       # Number of squashed instructions issued (Count)
system.cpu.squashedInstsExamined               331586                       # Number of squashed instructions iterated over during squash; mainly for profiling (Count)
system.cpu.squashedOperandsExamined            498819                       # Number of squashed operands that are examined and possibly removed from graph (Count)
system.cpu.squashedNonSpecRemoved                   7                       # Number of squashed non-spec instructions that were removed (Count)
system.cpu.numIssuedDist::samples            17565978                       # Number of insts issued each cycle (Count)
system.cpu.numIssuedDist::mean               1.726179                       # Number of insts issued each cycle (Count)
system.cpu.numIssuedDist::stdev              2.149604                       # Number of insts issued each cycle (Count)
system.cpu.numIssuedDist::underflows                0      0.00%      0.00% # Number of insts issued each cycle (Count)
system.cpu.numIssuedDist::0                   7977911     45.42%     45.42% # Number of insts issued each cycle (Count)
system.cpu.numIssuedDist::1                   3206540     18.25%     63.67% # Number of insts issued each cycle (Count)
system.cpu.numIssuedDist::2                    977628      5.57%     69.24% # Number of insts issued each cycle (Count)
system.cpu.numIssuedDist::3                   1019615      5.80%     75.04% # Number of insts issued each cycle (Count)
system.cpu.numIssuedDist::4                   1868807     10.64%     85.68% # Number of insts issued each cycle (Count)
system.cpu.numIssuedDist::5                   1219647      6.94%     92.62% # Number of insts issued each cycle (Count)
system.cpu.numIssuedDist::6                    736030      4.19%     96.81% # Number of insts issued each cycle (Count)
system.cpu.numIssuedDist::7                    366662      2.09%     98.90% # Number of insts issued each cycle (Count)
system.cpu.numIssuedDist::8                    193138      1.10%    100.00% # Number of insts issued each cycle (Count)
system.cpu.numIssuedDist::overflows                 0      0.00%    100.00% # Number of insts issued each cycle (Count)
system.cpu.numIssuedDist::min_value                 0                       # Number of insts issued each cycle (Count)
system.cpu.numIssuedDist::max_value                 8                       # Number of insts issued each cycle (Count)
system.cpu.numIssuedDist::total              17565978                       # Number of insts issued each cycle (Count)
system.cpu.statFuBusy::No_OpClass                   0      0.00%      0.00% # attempts to use FU when none available (Count)
system.cpu.statFuBusy::IntAlu                   99978      3.68%      3.68% # attempts to use FU when none available (Count)
system.cpu.statFuBusy::IntMult                      0      0.00%      3.68% # attempts to use FU when none available (Count)
system.cpu.statFuBusy::IntDiv                       0      0.00%      3.68% # attempts to use FU when none available (Count)
system.cpu.statFuBusy::FloatAdd                     0      0.00%      3.68% # attempts to use FU when none available (Count)
system.cpu.statFuBusy::FloatCmp                     0      0.00%      3.68% # attempts to use FU when none available (Count)
system.cpu.statFuBusy::FloatCvt                     0      0.00%      3.68% # attempts to use FU when none available (Count)
system.cpu.statFuBusy::FloatMult                    0      0.00%      3.68% # attempts to use FU when none available (Count)
system.cpu.statFuBusy::FloatMultAcc                 0      0.00%      3.68% # attempts to use FU when none available (Count)
system.cpu.statFuBusy::FloatDiv                     0      0.00%      3.68% # attempts to use FU when none available (Count)
system.cpu.statFuBusy::FloatMisc                    0      0.00%      3.68% # attempts to use FU when none available (Count)
system.cpu.statFuBusy::FloatSqrt                    0      0.00%      3.68% # attempts to use FU when none available (Count)
system.cpu.statFuBusy::SimdAdd                      0      0.00%      3.68% # attempts to use FU when none available (Count)
system.cpu.statFuBusy::SimdAddAcc                   0      0.00%      3.68% # attempts to use FU when none available (Count)
system.cpu.statFuBusy::SimdAlu                     11      0.00%      3.68% # attempts to use FU when none available (Count)
system.cpu.statFuBusy::SimdCmp                      0      0.00%      3.68% # attempts to use FU when none available (Count)
system.cpu.statFuBusy::SimdCvt                      1      0.00%      3.68% # attempts to use FU when none available (Count)
system.cpu.statFuBusy::SimdMisc                     2      0.00%      3.68% # attempts to use FU when none available (Count)
system.cpu.statFuBusy::SimdMult                     0      0.00%      3.68% # attempts to use FU when none available (Count)
system.cpu.statFuBusy::SimdMultAcc                  0      0.00%      3.68% # attempts to use FU when none available (Count)
system.cpu.statFuBusy::SimdShift                    0      0.00%      3.68% # attempts to use FU when none available (Count)
system.cpu.statFuBusy::SimdShiftAcc                 0      0.00%      3.68% # attempts to use FU when none available (Count)
system.cpu.statFuBusy::SimdDiv                      0      0.00%      3.68% # attempts to use FU when none available (Count)
system.cpu.statFuBusy::SimdSqrt                     0      0.00%      3.68% # attempts to use FU when none available (Count)
system.cpu.statFuBusy::SimdFloatAdd                 0      0.00%      3.68% # attempts to use FU when none available (Count)
system.cpu.statFuBusy::SimdFloatAlu                 0      0.00%      3.68% # attempts to use FU when none available (Count)
system.cpu.statFuBusy::SimdFloatCmp                 0      0.00%      3.68% # attempts to use FU when none available (Count)
system.cpu.statFuBusy::SimdFloatCvt                 0      0.00%      3.68% # attempts to use FU when none available (Count)
system.cpu.statFuBusy::SimdFloatDiv                 0      0.00%      3.68% # attempts to use FU when none available (Count)
system.cpu.statFuBusy::SimdFloatMisc                0      0.00%      3.68% # attempts to use FU when none available (Count)
system.cpu.statFuBusy::SimdFloatMult              266      0.01%      3.69% # attempts to use FU when none available (Count)
system.cpu.statFuBusy::SimdFloatMultAcc             0      0.00%      3.69% # attempts to use FU when none available (Count)
system.cpu.statFuBusy::SimdFloatSqrt                0      0.00%      3.69% # attempts to use FU when none available (Count)
system.cpu.statFuBusy::SimdReduceAdd                0      0.00%      3.69% # attempts to use FU when none available (Count)
system.cpu.statFuBusy::SimdReduceAlu                0      0.00%      3.69% # attempts to use FU when none available (Count)
system.cpu.statFuBusy::SimdReduceCmp                0      0.00%      3.69% # attempts to use FU when none available (Count)
system.cpu.statFuBusy::SimdFloatReduceAdd            0      0.00%      3.69% # attempts to use FU when none available (Count)
system.cpu.statFuBusy::SimdFloatReduceCmp            0      0.00%      3.69% # attempts to use FU when none available (Count)
system.cpu.statFuBusy::SimdAes                      0      0.00%      3.69% # attempts to use FU when none available (Count)
system.cpu.statFuBusy::SimdAesMix                   0      0.00%      3.69% # attempts to use FU when none available (Count)
system.cpu.statFuBusy::SimdSha1Hash                 0      0.00%      3.69% # attempts to use FU when none available (Count)
system.cpu.statFuBusy::SimdSha1Hash2                0      0.00%      3.69% # attempts to use FU when none available (Count)
system.cpu.statFuBusy::SimdSha256Hash               0      0.00%      3.69% # attempts to use FU when none available (Count)
system.cpu.statFuBusy::SimdSha256Hash2              0      0.00%      3.69% # attempts to use FU when none available (Count)
system.cpu.statFuBusy::SimdShaSigma2                0      0.00%      3.69% # attempts to use FU when none available (Count)
system.cpu.statFuBusy::SimdShaSigma3                0      0.00%      3.69% # attempts to use FU when none available (Count)
system.cpu.statFuBusy::SimdPredAlu                  0      0.00%      3.69% # attempts to use FU when none available (Count)
system.cpu.statFuBusy::MemRead                1070596     39.40%     43.09% # attempts to use FU when none available (Count)
system.cpu.statFuBusy::MemWrite                    13      0.00%     43.10% # attempts to use FU when none available (Count)
system.cpu.statFuBusy::FloatMemRead           1546051     56.90%    100.00% # attempts to use FU when none available (Count)
system.cpu.statFuBusy::FloatMemWrite               12      0.00%    100.00% # attempts to use FU when none available (Count)
system.cpu.statFuBusy::IprAccess                    0      0.00%    100.00% # attempts to use FU when none available (Count)
system.cpu.statFuBusy::InstPrefetch                 0      0.00%    100.00% # attempts to use FU when none available (Count)
system.cpu.statIssuedInstType_0::No_OpClass          657      0.00%      0.00% # Number of instructions issued per FU type, per thread (Count)
system.cpu.statIssuedInstType_0::IntAlu      11427309     37.69%     37.69% # Number of instructions issued per FU type, per thread (Count)
system.cpu.statIssuedInstType_0::IntMult            5      0.00%     37.69% # Number of instructions issued per FU type, per thread (Count)
system.cpu.statIssuedInstType_0::IntDiv            26      0.00%     37.69% # Number of instructions issued per FU type, per thread (Count)
system.cpu.statIssuedInstType_0::FloatAdd      3172617     10.46%     48.15% # Number of instructions issued per FU type, per thread (Count)
system.cpu.statIssuedInstType_0::FloatCmp            0      0.00%     48.15% # Number of instructions issued per FU type, per thread (Count)
system.cpu.statIssuedInstType_0::FloatCvt            0      0.00%     48.15% # Number of instructions issued per FU type, per thread (Count)
system.cpu.statIssuedInstType_0::FloatMult            0      0.00%     48.15% # Number of instructions issued per FU type, per thread (Count)
system.cpu.statIssuedInstType_0::FloatMultAcc            0      0.00%     48.15% # Number of instructions issued per FU type, per thread (Count)
system.cpu.statIssuedInstType_0::FloatDiv            0      0.00%     48.15% # Number of instructions issued per FU type, per thread (Count)
system.cpu.statIssuedInstType_0::FloatMisc            0      0.00%     48.15% # Number of instructions issued per FU type, per thread (Count)
system.cpu.statIssuedInstType_0::FloatSqrt            0      0.00%     48.15% # Number of instructions issued per FU type, per thread (Count)
system.cpu.statIssuedInstType_0::SimdAdd            0      0.00%     48.15% # Number of instructions issued per FU type, per thread (Count)
system.cpu.statIssuedInstType_0::SimdAddAcc            0      0.00%     48.15% # Number of instructions issued per FU type, per thread (Count)
system.cpu.statIssuedInstType_0::SimdAlu          209      0.00%     48.15% # Number of instructions issued per FU type, per thread (Count)
system.cpu.statIssuedInstType_0::SimdCmp            0      0.00%     48.15% # Number of instructions issued per FU type, per thread (Count)
system.cpu.statIssuedInstType_0::SimdCvt           49      0.00%     48.15% # Number of instructions issued per FU type, per thread (Count)
system.cpu.statIssuedInstType_0::SimdMisc          218      0.00%     48.15% # Number of instructions issued per FU type, per thread (Count)
system.cpu.statIssuedInstType_0::SimdMult            0      0.00%     48.15% # Number of instructions issued per FU type, per thread (Count)
system.cpu.statIssuedInstType_0::SimdMultAcc            0      0.00%     48.15% # Number of instructions issued per FU type, per thread (Count)
system.cpu.statIssuedInstType_0::SimdShift            0      0.00%     48.15% # Number of instructions issued per FU type, per thread (Count)
system.cpu.statIssuedInstType_0::SimdShiftAcc            0      0.00%     48.15% # Number of instructions issued per FU type, per thread (Count)
system.cpu.statIssuedInstType_0::SimdDiv            0      0.00%     48.15% # Number of instructions issued per FU type, per thread (Count)
system.cpu.statIssuedInstType_0::SimdSqrt            0      0.00%     48.15% # Number of instructions issued per FU type, per thread (Count)
system.cpu.statIssuedInstType_0::SimdFloatAdd      1584329      5.23%     53.38% # Number of instructions issued per FU type, per thread (Count)
system.cpu.statIssuedInstType_0::SimdFloatAlu            0      0.00%     53.38% # Number of instructions issued per FU type, per thread (Count)
system.cpu.statIssuedInstType_0::SimdFloatCmp            0      0.00%     53.38% # Number of instructions issued per FU type, per thread (Count)
system.cpu.statIssuedInstType_0::SimdFloatCvt            0      0.00%     53.38% # Number of instructions issued per FU type, per thread (Count)
system.cpu.statIssuedInstType_0::SimdFloatDiv            0      0.00%     53.38% # Number of instructions issued per FU type, per thread (Count)
system.cpu.statIssuedInstType_0::SimdFloatMisc            0      0.00%     53.38% # Number of instructions issued per FU type, per thread (Count)
system.cpu.statIssuedInstType_0::SimdFloatMult      1559784      5.14%     58.52% # Number of instructions issued per FU type, per thread (Count)
system.cpu.statIssuedInstType_0::SimdFloatMultAcc            0      0.00%     58.52% # Number of instructions issued per FU type, per thread (Count)
system.cpu.statIssuedInstType_0::SimdFloatSqrt            0      0.00%     58.52% # Number of instructions issued per FU type, per thread (Count)
system.cpu.statIssuedInstType_0::SimdReduceAdd            0      0.00%     58.52% # Number of instructions issued per FU type, per thread (Count)
system.cpu.statIssuedInstType_0::SimdReduceAlu            0      0.00%     58.52% # Number of instructions issued per FU type, per thread (Count)
system.cpu.statIssuedInstType_0::SimdReduceCmp            0      0.00%     58.52% # Number of instructions issued per FU type, per thread (Count)
system.cpu.statIssuedInstType_0::SimdFloatReduceAdd            0      0.00%     58.52% # Number of instructions issued per FU type, per thread (Count)
system.cpu.statIssuedInstType_0::SimdFloatReduceCmp            0      0.00%     58.52% # Number of instructions issued per FU type, per thread (Count)
system.cpu.statIssuedInstType_0::SimdAes            0      0.00%     58.52% # Number of instructions issued per FU type, per thread (Count)
system.cpu.statIssuedInstType_0::SimdAesMix            0      0.00%     58.52% # Number of instructions issued per FU type, per thread (Count)
system.cpu.statIssuedInstType_0::SimdSha1Hash            0      0.00%     58.52% # Number of instructions issued per FU type, per thread (Count)
system.cpu.statIssuedInstType_0::SimdSha1Hash2            0      0.00%     58.52% # Number of instructions issued per FU type, per thread (Count)
system.cpu.statIssuedInstType_0::SimdSha256Hash            0      0.00%     58.52% # Number of instructions issued per FU type, per thread (Count)
system.cpu.statIssuedInstType_0::SimdSha256Hash2            0      0.00%     58.52% # Number of instructions issued per FU type, per thread (Count)
system.cpu.statIssuedInstType_0::SimdShaSigma2            0      0.00%     58.52% # Number of instructions issued per FU type, per thread (Count)
system.cpu.statIssuedInstType_0::SimdShaSigma3            0      0.00%     58.52% # Number of instructions issued per FU type, per thread (Count)
system.cpu.statIssuedInstType_0::SimdPredAlu            0      0.00%     58.52% # Number of instructions issued per FU type, per thread (Count)
system.cpu.statIssuedInstType_0::MemRead      4124190     13.60%     72.12% # Number of instructions issued per FU type, per thread (Count)
system.cpu.statIssuedInstType_0::MemWrite         1745      0.01%     72.13% # Number of instructions issued per FU type, per thread (Count)
system.cpu.statIssuedInstType_0::FloatMemRead      8425776     27.79%     99.92% # Number of instructions issued per FU type, per thread (Count)
system.cpu.statIssuedInstType_0::FloatMemWrite        25108      0.08%    100.00% # Number of instructions issued per FU type, per thread (Count)
system.cpu.statIssuedInstType_0::IprAccess            0      0.00%    100.00% # Number of instructions issued per FU type, per thread (Count)
system.cpu.statIssuedInstType_0::InstPrefetch            0      0.00%    100.00% # Number of instructions issued per FU type, per thread (Count)
system.cpu.statIssuedInstType_0::total       30322022                       # Number of instructions issued per FU type, per thread (Count)
system.cpu.issueRate                         1.724148                       # Inst issue rate ((Count/Cycle))
system.cpu.fuBusy                             2716930                       # FU busy when requested (Count)
system.cpu.fuBusyRate                        0.089603                       # FU busy rate (busy events/executed inst) ((Count/Count))
system.cpu.intInstQueueReads                 49760974                       # Number of integer instruction queue reads (Count)
system.cpu.intInstQueueWrites                13261200                       # Number of integer instruction queue writes (Count)
system.cpu.intInstQueueWakeupAccesses        12967778                       # Number of integer instruction queue wakeup accesses (Count)
system.cpu.fpInstQueueReads                  31194658                       # Number of floating instruction queue reads (Count)
system.cpu.fpInstQueueWrites                  9768441                       # Number of floating instruction queue writes (Count)
system.cpu.fpInstQueueWakeupAccesses          9523786                       # Number of floating instruction queue wakeup accesses (Count)
system.cpu.vecInstQueueReads                        0                       # Number of vector instruction queue reads (Count)
system.cpu.vecInstQueueWrites                       0                       # Number of vector instruction queue writes (Count)
system.cpu.vecInstQueueWakeupAccesses               0                       # Number of vector instruction queue wakeup accesses (Count)
system.cpu.intAluAccesses                    16674380                       # Number of integer alu accesses (Count)
system.cpu.fpAluAccesses                     16363915                       # Number of floating point alu accesses (Count)
system.cpu.vecAluAccesses                           0                       # Number of vector alu accesses (Count)
system.cpu.numInsts                          30274763                       # Number of executed instructions (Count)
system.cpu.numLoadInsts                      12539447                       # Number of load instructions executed (Count)
system.cpu.numSquashedInsts                     47259                       # Number of squashed instructions skipped in execute (Count)
system.cpu.numSwp                                   0                       # Number of swp insts executed (Count)
system.cpu.numNop                                   0                       # Number of nop insts executed (Count)
system.cpu.numRefs                           12566214                       # Number of memory reference insts executed (Count)
system.cpu.numBranches                        1615388                       # Number of branches executed (Count)
system.cpu.numStoreInsts                        26767                       # Number of stores executed (Count)
system.cpu.numRate                           1.721461                       # Inst execution rate ((Count/Cycle))
system.cpu.timesIdled                             298                       # Number of times that the entire CPU went into an idle state and unscheduled itself (Count)
system.cpu.idleCycles                           20693                       # Total number of cycles that the CPU has spent unscheduled due to idling (Cycle)
system.cpu.committedInsts                    11220003                       # Number of Instructions Simulated (Count)
system.cpu.committedOps                      22366450                       # Number of Ops (including micro ops) Simulated (Count)
system.cpu.cpi                               1.567439                       # CPI: Cycles Per Instruction ((Cycle/Count))
system.cpu.totalCpi                          1.567439                       # CPI: Total CPI of All Threads ((Cycle/Count))
system.cpu.ipc                               0.637983                       # IPC: Instructions Per Cycle ((Count/Cycle))
system.cpu.totalIpc                          0.637983                       # IPC: Total IPC of All Threads ((Count/Cycle))
system.cpu.intRegfileReads                   36448960                       # Number of integer regfile reads (Count)
system.cpu.intRegfileWrites                  11326168                       # Number of integer regfile writes (Count)
system.cpu.fpRegfileReads                     9557201                       # Number of floating regfile reads (Count)
system.cpu.fpRegfileWrites                    9499213                       # Number of floating regfile writes (Count)
system.cpu.ccRegfileReads                     8075803                       # number of cc regfile reads (Count)
system.cpu.ccRegfileWrites                    6488143                       # number of cc regfile writes (Count)
system.cpu.miscRegfileReads                  15808438                       # number of misc regfile reads (Count)
system.cpu.MemDepUnit__0.insertedLoads        4831636                       # Number of loads inserted to the mem dependence unit. (Count)
system.cpu.MemDepUnit__0.insertedStores         27508                       # Number of stores inserted to the mem dependence unit. (Count)
system.cpu.MemDepUnit__0.conflictingLoads          969                       # Number of conflicting loads. (Count)
system.cpu.MemDepUnit__0.conflictingStores          921                       # Number of conflicting stores. (Count)
system.cpu.MemDepUnit__1.insertedLoads              0                       # Number of loads inserted to the mem dependence unit. (Count)
system.cpu.MemDepUnit__1.insertedStores             0                       # Number of stores inserted to the mem dependence unit. (Count)
system.cpu.MemDepUnit__1.conflictingLoads            0                       # Number of conflicting loads. (Count)
system.cpu.MemDepUnit__1.conflictingStores            0                       # Number of conflicting stores. (Count)
system.cpu.MemDepUnit__2.insertedLoads              0                       # Number of loads inserted to the mem dependence unit. (Count)
system.cpu.MemDepUnit__2.insertedStores             0                       # Number of stores inserted to the mem dependence unit. (Count)
system.cpu.MemDepUnit__2.conflictingLoads            0                       # Number of conflicting loads. (Count)
system.cpu.MemDepUnit__2.conflictingStores            0                       # Number of conflicting stores. (Count)
system.cpu.MemDepUnit__3.insertedLoads              0                       # Number of loads inserted to the mem dependence unit. (Count)
system.cpu.MemDepUnit__3.insertedStores             0                       # Number of stores inserted to the mem dependence unit. (Count)
system.cpu.MemDepUnit__3.conflictingLoads            0                       # Number of conflicting loads. (Count)
system.cpu.MemDepUnit__3.conflictingStores            0                       # Number of conflicting stores. (Count)
system.cpu.branchPred.lookups                 1678116                       # Number of BP lookups (Count)
system.cpu.branchPred.condPredicted           1676862                       # Number of conditional branches predicted (Count)
system.cpu.branchPred.condIncorrect             25461                       # Number of conditional branches incorrect (Count)
system.cpu.branchPred.BTBLookups              1650614                       # Number of BTB lookups (Count)
system.cpu.branchPred.BTBHits                 1649874                       # Number of BTB hits (Count)
system.cpu.branchPred.BTBHitRatio            0.999552                       # BTB Hit Ratio (Ratio)
system.cpu.branchPred.RASUsed                     288                       # Number of times the RAS was used to get a target. (Count)
system.cpu.branchPred.RASIncorrect                  0                       # Number of incorrect RAS predictions. (Count)
system.cpu.branchPred.indirectLookups             322                       # Number of indirect predictor lookups. (Count)
system.cpu.branchPred.indirectHits                 22                       # Number of indirect target hits. (Count)
system.cpu.branchPred.indirectMisses              300                       # Number of indirect misses. (Count)
system.cpu.branchPred.indirectMispredicted           95                       # Number of mispredicted indirect branches. (Count)
system.cpu.commit.commitSquashedInsts          333033                       # The number of squashed insts skipped by commit (Count)
system.cpu.commit.branchMispredicts             25357                       # The number of times a branch was mispredicted (Count)
system.cpu.commit.numCommittedDist::samples     17509656                       # Number of insts commited each cycle (Count)
system.cpu.commit.numCommittedDist::mean     1.277378                       # Number of insts commited each cycle (Count)
system.cpu.commit.numCommittedDist::stdev     2.561091                       # Number of insts commited each cycle (Count)
system.cpu.commit.numCommittedDist::underflows            0      0.00%      0.00% # Number of insts commited each cycle (Count)
system.cpu.commit.numCommittedDist::0        12872653     73.52%     73.52% # Number of insts commited each cycle (Count)
system.cpu.commit.numCommittedDist::1          522434      2.98%     76.50% # Number of insts commited each cycle (Count)
system.cpu.commit.numCommittedDist::2          500901      2.86%     79.36% # Number of insts commited each cycle (Count)
system.cpu.commit.numCommittedDist::3         1476830      8.43%     87.80% # Number of insts commited each cycle (Count)
system.cpu.commit.numCommittedDist::4           12640      0.07%     87.87% # Number of insts commited each cycle (Count)
system.cpu.commit.numCommittedDist::5          140569      0.80%     88.67% # Number of insts commited each cycle (Count)
system.cpu.commit.numCommittedDist::6           46996      0.27%     88.94% # Number of insts commited each cycle (Count)
system.cpu.commit.numCommittedDist::7          116721      0.67%     89.61% # Number of insts commited each cycle (Count)
system.cpu.commit.numCommittedDist::8         1819912     10.39%    100.00% # Number of insts commited each cycle (Count)
system.cpu.commit.numCommittedDist::overflows            0      0.00%    100.00% # Number of insts commited each cycle (Count)
system.cpu.commit.numCommittedDist::min_value            0                       # Number of insts commited each cycle (Count)
system.cpu.commit.numCommittedDist::max_value            8                       # Number of insts commited each cycle (Count)
system.cpu.commit.numCommittedDist::total     17509656                       # Number of insts commited each cycle (Count)
system.cpu.commit.instsCommitted             11220003                       # Number of instructions committed (Count)
system.cpu.commit.opsCommitted               22366450                       # Number of ops (including micro ops) committed (Count)
system.cpu.commit.memRefs                     4780350                       # Number of memory references committed (Count)
system.cpu.commit.loads                       4754176                       # Number of loads committed (Count)
system.cpu.commit.amos                              0                       # Number of atomic instructions committed (Count)
system.cpu.commit.membars                           0                       # Number of memory barriers committed (Count)
system.cpu.commit.branches                    1610468                       # Number of branches committed (Count)
system.cpu.commit.vectorInstructions                0                       # Number of committed Vector instructions. (Count)
system.cpu.commit.floating                    9481927                       # Number of committed floating point instructions. (Count)
system.cpu.commit.integer                    16029408                       # Number of committed integer instructions. (Count)
system.cpu.commit.functionCalls                   143                       # Number of function calls committed. (Count)
system.cpu.commit.committedInstType_0::No_OpClass          186      0.00%      0.00% # Class of committed instruction (Count)
system.cpu.commit.committedInstType_0::IntAlu     11322212     50.62%     50.62% # Class of committed instruction (Count)
system.cpu.commit.committedInstType_0::IntMult            5      0.00%     50.62% # Class of committed instruction (Count)
system.cpu.commit.committedInstType_0::IntDiv           21      0.00%     50.62% # Class of committed instruction (Count)
system.cpu.commit.committedInstType_0::FloatAdd      3119439     13.95%     64.57% # Class of committed instruction (Count)
system.cpu.commit.committedInstType_0::FloatCmp            0      0.00%     64.57% # Class of committed instruction (Count)
system.cpu.commit.committedInstType_0::FloatCvt            0      0.00%     64.57% # Class of committed instruction (Count)
system.cpu.commit.committedInstType_0::FloatMult            0      0.00%     64.57% # Class of committed instruction (Count)
system.cpu.commit.committedInstType_0::FloatMultAcc            0      0.00%     64.57% # Class of committed instruction (Count)
system.cpu.commit.committedInstType_0::FloatDiv            0      0.00%     64.57% # Class of committed instruction (Count)
system.cpu.commit.committedInstType_0::FloatMisc            0      0.00%     64.57% # Class of committed instruction (Count)
system.cpu.commit.committedInstType_0::FloatSqrt            0      0.00%     64.57% # Class of committed instruction (Count)
system.cpu.commit.committedInstType_0::SimdAdd            0      0.00%     64.57% # Class of committed instruction (Count)
system.cpu.commit.committedInstType_0::SimdAddAcc            0      0.00%     64.57% # Class of committed instruction (Count)
system.cpu.commit.committedInstType_0::SimdAlu           96      0.00%     64.57% # Class of committed instruction (Count)
system.cpu.commit.committedInstType_0::SimdCmp            0      0.00%     64.57% # Class of committed instruction (Count)
system.cpu.commit.committedInstType_0::SimdCvt           46      0.00%     64.57% # Class of committed instruction (Count)
system.cpu.commit.committedInstType_0::SimdMisc          215      0.00%     64.57% # Class of committed instruction (Count)
system.cpu.commit.committedInstType_0::SimdMult            0      0.00%     64.57% # Class of committed instruction (Count)
system.cpu.commit.committedInstType_0::SimdMultAcc            0      0.00%     64.57% # Class of committed instruction (Count)
system.cpu.commit.committedInstType_0::SimdShift            0      0.00%     64.57% # Class of committed instruction (Count)
system.cpu.commit.committedInstType_0::SimdShiftAcc            0      0.00%     64.57% # Class of committed instruction (Count)
system.cpu.commit.committedInstType_0::SimdDiv            0      0.00%     64.57% # Class of committed instruction (Count)
system.cpu.commit.committedInstType_0::SimdSqrt            0      0.00%     64.57% # Class of committed instruction (Count)
system.cpu.commit.committedInstType_0::SimdFloatAdd      1584228      7.08%     71.65% # Class of committed instruction (Count)
system.cpu.commit.committedInstType_0::SimdFloatAlu            0      0.00%     71.65% # Class of committed instruction (Count)
system.cpu.commit.committedInstType_0::SimdFloatCmp            0      0.00%     71.65% # Class of committed instruction (Count)
system.cpu.commit.committedInstType_0::SimdFloatCvt            0      0.00%     71.65% # Class of committed instruction (Count)
system.cpu.commit.committedInstType_0::SimdFloatDiv            0      0.00%     71.65% # Class of committed instruction (Count)
system.cpu.commit.committedInstType_0::SimdFloatMisc            0      0.00%     71.65% # Class of committed instruction (Count)
system.cpu.commit.committedInstType_0::SimdFloatMult      1559652      6.97%     78.63% # Class of committed instruction (Count)
system.cpu.commit.committedInstType_0::SimdFloatMultAcc            0      0.00%     78.63% # Class of committed instruction (Count)
system.cpu.commit.committedInstType_0::SimdFloatSqrt            0      0.00%     78.63% # Class of committed instruction (Count)
system.cpu.commit.committedInstType_0::SimdReduceAdd            0      0.00%     78.63% # Class of committed instruction (Count)
system.cpu.commit.committedInstType_0::SimdReduceAlu            0      0.00%     78.63% # Class of committed instruction (Count)
system.cpu.commit.committedInstType_0::SimdReduceCmp            0      0.00%     78.63% # Class of committed instruction (Count)
system.cpu.commit.committedInstType_0::SimdFloatReduceAdd            0      0.00%     78.63% # Class of committed instruction (Count)
system.cpu.commit.committedInstType_0::SimdFloatReduceCmp            0      0.00%     78.63% # Class of committed instruction (Count)
system.cpu.commit.committedInstType_0::SimdAes            0      0.00%     78.63% # Class of committed instruction (Count)
system.cpu.commit.committedInstType_0::SimdAesMix            0      0.00%     78.63% # Class of committed instruction (Count)
system.cpu.commit.committedInstType_0::SimdSha1Hash            0      0.00%     78.63% # Class of committed instruction (Count)
system.cpu.commit.committedInstType_0::SimdSha1Hash2            0      0.00%     78.63% # Class of committed instruction (Count)
system.cpu.commit.committedInstType_0::SimdSha256Hash            0      0.00%     78.63% # Class of committed instruction (Count)
system.cpu.commit.committedInstType_0::SimdSha256Hash2            0      0.00%     78.63% # Class of committed instruction (Count)
system.cpu.commit.committedInstType_0::SimdShaSigma2            0      0.00%     78.63% # Class of committed instruction (Count)
system.cpu.commit.committedInstType_0::SimdShaSigma3            0      0.00%     78.63% # Class of committed instruction (Count)
system.cpu.commit.committedInstType_0::SimdPredAlu            0      0.00%     78.63% # Class of committed instruction (Count)
system.cpu.commit.committedInstType_0::MemRead      1610250      7.20%     85.83% # Class of committed instruction (Count)
system.cpu.commit.committedInstType_0::MemWrite         1140      0.01%     85.83% # Class of committed instruction (Count)
system.cpu.commit.committedInstType_0::FloatMemRead      3143926     14.06%     99.89% # Class of committed instruction (Count)
system.cpu.commit.committedInstType_0::FloatMemWrite        25034      0.11%    100.00% # Class of committed instruction (Count)
system.cpu.commit.committedInstType_0::IprAccess            0      0.00%    100.00% # Class of committed instruction (Count)
system.cpu.commit.committedInstType_0::InstPrefetch            0      0.00%    100.00% # Class of committed instruction (Count)
system.cpu.commit.committedInstType_0::total     22366450                       # Class of committed instruction (Count)
system.cpu.commit.commitEligibleSamples       1819912                       # number cycles where commit BW limit reached (Cycle)
system.cpu.dcache.demandHits::cpu.data        1555100                       # number of demand (read+write) hits (Count)
system.cpu.dcache.demandHits::total           1555100                       # number of demand (read+write) hits (Count)
system.cpu.dcache.overallHits::cpu.data       1555100                       # number of overall hits (Count)
system.cpu.dcache.overallHits::total          1555100                       # number of overall hits (Count)
system.cpu.dcache.demandMisses::cpu.data      3334981                       # number of demand (read+write) misses (Count)
system.cpu.dcache.demandMisses::total         3334981                       # number of demand (read+write) misses (Count)
system.cpu.dcache.overallMisses::cpu.data      3334981                       # number of overall misses (Count)
system.cpu.dcache.overallMisses::total        3334981                       # number of overall misses (Count)
system.cpu.dcache.demandMissLatency::cpu.data 181634772999                       # number of demand (read+write) miss ticks (Tick)
system.cpu.dcache.demandMissLatency::total 181634772999                       # number of demand (read+write) miss ticks (Tick)
system.cpu.dcache.overallMissLatency::cpu.data 181634772999                       # number of overall miss ticks (Tick)
system.cpu.dcache.overallMissLatency::total 181634772999                       # number of overall miss ticks (Tick)
system.cpu.dcache.demandAccesses::cpu.data      4890081                       # number of demand (read+write) accesses (Count)
system.cpu.dcache.demandAccesses::total       4890081                       # number of demand (read+write) accesses (Count)
system.cpu.dcache.overallAccesses::cpu.data      4890081                       # number of overall (read+write) accesses (Count)
system.cpu.dcache.overallAccesses::total      4890081                       # number of overall (read+write) accesses (Count)
system.cpu.dcache.demandMissRate::cpu.data     0.681989                       # miss rate for demand accesses (Ratio)
system.cpu.dcache.demandMissRate::total      0.681989                       # miss rate for demand accesses (Ratio)
system.cpu.dcache.overallMissRate::cpu.data     0.681989                       # miss rate for overall accesses (Ratio)
system.cpu.dcache.overallMissRate::total     0.681989                       # miss rate for overall accesses (Ratio)
system.cpu.dcache.demandAvgMissLatency::cpu.data 54463.510586                       # average overall miss latency ((Cycle/Count))
system.cpu.dcache.demandAvgMissLatency::total 54463.510586                       # average overall miss latency ((Cycle/Count))
system.cpu.dcache.overallAvgMissLatency::cpu.data 54463.510586                       # average overall miss latency ((Cycle/Count))
system.cpu.dcache.overallAvgMissLatency::total 54463.510586                       # average overall miss latency ((Cycle/Count))
system.cpu.dcache.blockedCycles::no_mshrs      7223426                       # number of cycles access was blocked (Cycle)
system.cpu.dcache.blockedCycles::no_targets            0                       # number of cycles access was blocked (Cycle)
system.cpu.dcache.blockedCauses::no_mshrs      1021979                       # number of times access was blocked (Count)
system.cpu.dcache.blockedCauses::no_targets            0                       # number of times access was blocked (Count)
system.cpu.dcache.avgBlocked::no_mshrs       7.068077                       # average number of cycles each access was blocked ((Cycle/Count))
system.cpu.dcache.avgBlocked::no_targets          nan                       # average number of cycles each access was blocked ((Cycle/Count))
system.cpu.dcache.writebacks::writebacks         1893                       # number of writebacks (Count)
system.cpu.dcache.writebacks::total              1893                       # number of writebacks (Count)
system.cpu.dcache.demandMshrHits::cpu.data      1911727                       # number of demand (read+write) MSHR hits (Count)
system.cpu.dcache.demandMshrHits::total       1911727                       # number of demand (read+write) MSHR hits (Count)
system.cpu.dcache.overallMshrHits::cpu.data      1911727                       # number of overall MSHR hits (Count)
system.cpu.dcache.overallMshrHits::total      1911727                       # number of overall MSHR hits (Count)
system.cpu.dcache.demandMshrMisses::cpu.data      1423254                       # number of demand (read+write) MSHR misses (Count)
system.cpu.dcache.demandMshrMisses::total      1423254                       # number of demand (read+write) MSHR misses (Count)
system.cpu.dcache.overallMshrMisses::cpu.data      1423254                       # number of overall MSHR misses (Count)
system.cpu.dcache.overallMshrMisses::total      1423254                       # number of overall MSHR misses (Count)
system.cpu.dcache.demandMshrMissLatency::cpu.data  50678363999                       # number of demand (read+write) MSHR miss ticks (Tick)
system.cpu.dcache.demandMshrMissLatency::total  50678363999                       # number of demand (read+write) MSHR miss ticks (Tick)
system.cpu.dcache.overallMshrMissLatency::cpu.data  50678363999                       # number of overall MSHR miss ticks (Tick)
system.cpu.dcache.overallMshrMissLatency::total  50678363999                       # number of overall MSHR miss ticks (Tick)
system.cpu.dcache.demandMshrMissRate::cpu.data     0.291049                       # mshr miss ratio for demand accesses (Ratio)
system.cpu.dcache.demandMshrMissRate::total     0.291049                       # mshr miss ratio for demand accesses (Ratio)
system.cpu.dcache.overallMshrMissRate::cpu.data     0.291049                       # mshr miss ratio for overall accesses (Ratio)
system.cpu.dcache.overallMshrMissRate::total     0.291049                       # mshr miss ratio for overall accesses (Ratio)
system.cpu.dcache.demandAvgMshrMissLatency::cpu.data 35607.392636                       # average overall mshr miss latency ((Cycle/Count))
system.cpu.dcache.demandAvgMshrMissLatency::total 35607.392636                       # average overall mshr miss latency ((Cycle/Count))
system.cpu.dcache.overallAvgMshrMissLatency::cpu.data 35607.392636                       # average overall mshr miss latency ((Cycle/Count))
system.cpu.dcache.overallAvgMshrMissLatency::total 35607.392636                       # average overall mshr miss latency ((Cycle/Count))
system.cpu.dcache.replacements                1422230                       # number of replacements (Count)
system.cpu.dcache.ReadReq.hits::cpu.data      1529039                       # number of ReadReq hits (Count)
system.cpu.dcache.ReadReq.hits::total         1529039                       # number of ReadReq hits (Count)
system.cpu.dcache.ReadReq.misses::cpu.data      3334867                       # number of ReadReq misses (Count)
system.cpu.dcache.ReadReq.misses::total       3334867                       # number of ReadReq misses (Count)
system.cpu.dcache.ReadReq.missLatency::cpu.data 181622959000                       # number of ReadReq miss ticks (Tick)
system.cpu.dcache.ReadReq.missLatency::total 181622959000                       # number of ReadReq miss ticks (Tick)
system.cpu.dcache.ReadReq.accesses::cpu.data      4863906                       # number of ReadReq accesses(hits+misses) (Count)
system.cpu.dcache.ReadReq.accesses::total      4863906                       # number of ReadReq accesses(hits+misses) (Count)
system.cpu.dcache.ReadReq.missRate::cpu.data     0.685636                       # miss rate for ReadReq accesses (Ratio)
system.cpu.dcache.ReadReq.missRate::total     0.685636                       # miss rate for ReadReq accesses (Ratio)
system.cpu.dcache.ReadReq.avgMissLatency::cpu.data 54461.829812                       # average ReadReq miss latency ((Tick/Count))
system.cpu.dcache.ReadReq.avgMissLatency::total 54461.829812                       # average ReadReq miss latency ((Tick/Count))
system.cpu.dcache.ReadReq.mshrHits::cpu.data      1911726                       # number of ReadReq MSHR hits (Count)
system.cpu.dcache.ReadReq.mshrHits::total      1911726                       # number of ReadReq MSHR hits (Count)
system.cpu.dcache.ReadReq.mshrMisses::cpu.data      1423141                       # number of ReadReq MSHR misses (Count)
system.cpu.dcache.ReadReq.mshrMisses::total      1423141                       # number of ReadReq MSHR misses (Count)
system.cpu.dcache.ReadReq.mshrMissLatency::cpu.data  50666864000                       # number of ReadReq MSHR miss ticks (Tick)
system.cpu.dcache.ReadReq.mshrMissLatency::total  50666864000                       # number of ReadReq MSHR miss ticks (Tick)
system.cpu.dcache.ReadReq.mshrMissRate::cpu.data     0.292592                       # mshr miss rate for ReadReq accesses (Ratio)
system.cpu.dcache.ReadReq.mshrMissRate::total     0.292592                       # mshr miss rate for ReadReq accesses (Ratio)
system.cpu.dcache.ReadReq.avgMshrMissLatency::cpu.data 35602.139212                       # average ReadReq mshr miss latency ((Tick/Count))
system.cpu.dcache.ReadReq.avgMshrMissLatency::total 35602.139212                       # average ReadReq mshr miss latency ((Tick/Count))
system.cpu.dcache.WriteReq.hits::cpu.data        26061                       # number of WriteReq hits (Count)
system.cpu.dcache.WriteReq.hits::total          26061                       # number of WriteReq hits (Count)
system.cpu.dcache.WriteReq.misses::cpu.data          114                       # number of WriteReq misses (Count)
system.cpu.dcache.WriteReq.misses::total          114                       # number of WriteReq misses (Count)
system.cpu.dcache.WriteReq.missLatency::cpu.data     11813999                       # number of WriteReq miss ticks (Tick)
system.cpu.dcache.WriteReq.missLatency::total     11813999                       # number of WriteReq miss ticks (Tick)
system.cpu.dcache.WriteReq.accesses::cpu.data        26175                       # number of WriteReq accesses(hits+misses) (Count)
system.cpu.dcache.WriteReq.accesses::total        26175                       # number of WriteReq accesses(hits+misses) (Count)
system.cpu.dcache.WriteReq.missRate::cpu.data     0.004355                       # miss rate for WriteReq accesses (Ratio)
system.cpu.dcache.WriteReq.missRate::total     0.004355                       # miss rate for WriteReq accesses (Ratio)
system.cpu.dcache.WriteReq.avgMissLatency::cpu.data 103631.570175                       # average WriteReq miss latency ((Tick/Count))
system.cpu.dcache.WriteReq.avgMissLatency::total 103631.570175                       # average WriteReq miss latency ((Tick/Count))
system.cpu.dcache.WriteReq.mshrHits::cpu.data            1                       # number of WriteReq MSHR hits (Count)
system.cpu.dcache.WriteReq.mshrHits::total            1                       # number of WriteReq MSHR hits (Count)
system.cpu.dcache.WriteReq.mshrMisses::cpu.data          113                       # number of WriteReq MSHR misses (Count)
system.cpu.dcache.WriteReq.mshrMisses::total          113                       # number of WriteReq MSHR misses (Count)
system.cpu.dcache.WriteReq.mshrMissLatency::cpu.data     11499999                       # number of WriteReq MSHR miss ticks (Tick)
system.cpu.dcache.WriteReq.mshrMissLatency::total     11499999                       # number of WriteReq MSHR miss ticks (Tick)
system.cpu.dcache.WriteReq.mshrMissRate::cpu.data     0.004317                       # mshr miss rate for WriteReq accesses (Ratio)
system.cpu.dcache.WriteReq.mshrMissRate::total     0.004317                       # mshr miss rate for WriteReq accesses (Ratio)
system.cpu.dcache.WriteReq.avgMshrMissLatency::cpu.data 101769.902655                       # average WriteReq mshr miss latency ((Tick/Count))
system.cpu.dcache.WriteReq.avgMshrMissLatency::total 101769.902655                       # average WriteReq mshr miss latency ((Tick/Count))
system.cpu.dcache.power_state.pwrStateResidencyTicks::UNDEFINED  17586670000                       # Cumulative time (in ticks) in various power states (Tick)
system.cpu.dcache.tags.tagsInUse          1020.672490                       # Average ticks per tags in use ((Tick/Count))
system.cpu.dcache.tags.totalRefs              2978354                       # Total number of references to valid blocks. (Count)
system.cpu.dcache.tags.sampledRefs            1423254                       # Sample count of references to valid blocks. (Count)
system.cpu.dcache.tags.avgRefs               2.092637                       # Average number of references to valid blocks. ((Count/Count))
system.cpu.dcache.tags.warmupTick              222000                       # The tick when the warmup percentage was hit. (Tick)
system.cpu.dcache.tags.occupancies::cpu.data  1020.672490                       # Average occupied blocks per tick, per requestor ((Count/Tick))
system.cpu.dcache.tags.avgOccs::cpu.data     0.996750                       # Average percentage of cache occupancy ((Ratio/Tick))
system.cpu.dcache.tags.avgOccs::total        0.996750                       # Average percentage of cache occupancy ((Ratio/Tick))
system.cpu.dcache.tags.occupanciesTaskId::1024         1024                       # Occupied blocks per task id (Count)
system.cpu.dcache.tags.ageTaskId_1024::0          501                       # Occupied blocks per task id, per block age (Count)
system.cpu.dcache.tags.ageTaskId_1024::1          523                       # Occupied blocks per task id, per block age (Count)
system.cpu.dcache.tags.ratioOccsTaskId::1024            1                       # Ratio of occupied blocks and all blocks, per task id (Ratio)
system.cpu.dcache.tags.tagAccesses           11203416                       # Number of tag accesses (Count)
system.cpu.dcache.tags.dataAccesses          11203416                       # Number of data accesses (Count)
system.cpu.dcache.tags.power_state.pwrStateResidencyTicks::UNDEFINED  17586670000                       # Cumulative time (in ticks) in various power states (Tick)
system.cpu.decode.idleCycles                  1215739                       # Number of cycles decode is idle (Cycle)
system.cpu.decode.blockedCycles              12868048                       # Number of cycles decode is blocked (Cycle)
system.cpu.decode.runCycles                   2195413                       # Number of cycles decode is running (Cycle)
system.cpu.decode.unblockCycles               1261390                       # Number of cycles decode is unblocking (Cycle)
system.cpu.decode.squashCycles                  25388                       # Number of cycles decode is squashing (Cycle)
system.cpu.decode.branchResolved              1616698                       # Number of times decode resolved a branch (Count)
system.cpu.decode.branchMispred                   226                       # Number of times decode detected a branch misprediction (Count)
system.cpu.decode.decodedInsts               22954105                       # Number of instructions handled by decode (Count)
system.cpu.decode.squashedInsts                  1044                       # Number of squashed instructions handled by decode (Count)
system.cpu.dtb_walker_cache.blockedCycles::no_mshrs            0                       # number of cycles access was blocked (Cycle)
system.cpu.dtb_walker_cache.blockedCycles::no_targets            0                       # number of cycles access was blocked (Cycle)
system.cpu.dtb_walker_cache.blockedCauses::no_mshrs            0                       # number of times access was blocked (Count)
system.cpu.dtb_walker_cache.blockedCauses::no_targets            0                       # number of times access was blocked (Count)
system.cpu.dtb_walker_cache.avgBlocked::no_mshrs          nan                       # average number of cycles each access was blocked ((Cycle/Count))
system.cpu.dtb_walker_cache.avgBlocked::no_targets          nan                       # average number of cycles each access was blocked ((Cycle/Count))
system.cpu.dtb_walker_cache.replacements            0                       # number of replacements (Count)
system.cpu.dtb_walker_cache.power_state.pwrStateResidencyTicks::UNDEFINED  17586670000                       # Cumulative time (in ticks) in various power states (Tick)
system.cpu.dtb_walker_cache.tags.tagsInUse            0                       # Average ticks per tags in use ((Tick/Count))
system.cpu.dtb_walker_cache.tags.totalRefs            0                       # Total number of references to valid blocks. (Count)
system.cpu.dtb_walker_cache.tags.sampledRefs            0                       # Sample count of references to valid blocks. (Count)
system.cpu.dtb_walker_cache.tags.avgRefs          nan                       # Average number of references to valid blocks. ((Count/Count))
system.cpu.dtb_walker_cache.tags.warmupTick            0                       # The tick when the warmup percentage was hit. (Tick)
system.cpu.dtb_walker_cache.tags.tagAccesses            0                       # Number of tag accesses (Count)
system.cpu.dtb_walker_cache.tags.dataAccesses            0                       # Number of data accesses (Count)
system.cpu.dtb_walker_cache.tags.power_state.pwrStateResidencyTicks::UNDEFINED  17586670000                       # Cumulative time (in ticks) in various power states (Tick)
system.cpu.fetch.icacheStallCycles            3321046                       # Number of cycles fetch is stalled on an Icache miss (Cycle)
system.cpu.fetch.insts                       11742792                       # Number of instructions fetch has processed (Count)
system.cpu.fetch.branches                     1678116                       # Number of branches that fetch encountered (Count)
system.cpu.fetch.predictedBranches            1650184                       # Number of branches that fetch has predicted taken (Count)
system.cpu.fetch.cycles                      14218471                       # Number of cycles fetch has run and was not squashing or blocked (Cycle)
system.cpu.fetch.squashCycles                   51202                       # Number of cycles fetch has spent squashing (Cycle)
system.cpu.fetch.miscStallCycles                  123                       # Number of cycles fetch has spent waiting on interrupts, or bad addresses, or out of MSHRs (Cycle)
system.cpu.fetch.pendingTrapStallCycles           708                       # Number of stall cycles due to pending traps (Cycle)
system.cpu.fetch.pendingQuiesceStallCycles            1                       # Number of stall cycles due to pending quiesce instructions (Cycle)
system.cpu.fetch.icacheWaitRetryStallCycles           28                       # Number of stall cycles due to full MSHR (Cycle)
system.cpu.fetch.cacheLines                   3303379                       # Number of cache lines fetched (Count)
system.cpu.fetch.icacheSquashes                  7839                       # Number of outstanding Icache misses that were squashed (Count)
system.cpu.fetch.nisnDist::samples           17565978                       # Number of instructions fetched each cycle (Total) (Count)
system.cpu.fetch.nisnDist::mean              1.332992                       # Number of instructions fetched each cycle (Total) (Count)
system.cpu.fetch.nisnDist::stdev             2.545732                       # Number of instructions fetched each cycle (Total) (Count)
system.cpu.fetch.nisnDist::underflows               0      0.00%      0.00% # Number of instructions fetched each cycle (Total) (Count)
system.cpu.fetch.nisnDist::0                 12434072     70.78%     70.78% # Number of instructions fetched each cycle (Total) (Count)
system.cpu.fetch.nisnDist::1                  1484669      8.45%     79.24% # Number of instructions fetched each cycle (Total) (Count)
system.cpu.fetch.nisnDist::2                   130283      0.74%     79.98% # Number of instructions fetched each cycle (Total) (Count)
system.cpu.fetch.nisnDist::3                   159152      0.91%     80.88% # Number of instructions fetched each cycle (Total) (Count)
system.cpu.fetch.nisnDist::4                   192509      1.10%     81.98% # Number of instructions fetched each cycle (Total) (Count)
system.cpu.fetch.nisnDist::5                  1549989      8.82%     90.80% # Number of instructions fetched each cycle (Total) (Count)
system.cpu.fetch.nisnDist::6                    76306      0.43%     91.24% # Number of instructions fetched each cycle (Total) (Count)
system.cpu.fetch.nisnDist::7                    97182      0.55%     91.79% # Number of instructions fetched each cycle (Total) (Count)
system.cpu.fetch.nisnDist::8                  1441816      8.21%    100.00% # Number of instructions fetched each cycle (Total) (Count)
system.cpu.fetch.nisnDist::overflows                0      0.00%    100.00% # Number of instructions fetched each cycle (Total) (Count)
system.cpu.fetch.nisnDist::min_value                0                       # Number of instructions fetched each cycle (Total) (Count)
system.cpu.fetch.nisnDist::max_value                8                       # Number of instructions fetched each cycle (Total) (Count)
system.cpu.fetch.nisnDist::total             17565978                       # Number of instructions fetched each cycle (Total) (Count)
system.cpu.fetch.branchRate                  0.095420                       # Number of branch fetches per cycle (Ratio)
system.cpu.fetch.rate                        0.667710                       # Number of inst fetches per cycle ((Count/Cycle))
system.cpu.icache.demandHits::cpu.inst        3302784                       # number of demand (read+write) hits (Count)
system.cpu.icache.demandHits::total           3302784                       # number of demand (read+write) hits (Count)
system.cpu.icache.overallHits::cpu.inst       3302784                       # number of overall hits (Count)
system.cpu.icache.overallHits::total          3302784                       # number of overall hits (Count)
system.cpu.icache.demandMisses::cpu.inst          595                       # number of demand (read+write) misses (Count)
system.cpu.icache.demandMisses::total             595                       # number of demand (read+write) misses (Count)
system.cpu.icache.overallMisses::cpu.inst          595                       # number of overall misses (Count)
system.cpu.icache.overallMisses::total            595                       # number of overall misses (Count)
system.cpu.icache.demandMissLatency::cpu.inst     58238000                       # number of demand (read+write) miss ticks (Tick)
system.cpu.icache.demandMissLatency::total     58238000                       # number of demand (read+write) miss ticks (Tick)
system.cpu.icache.overallMissLatency::cpu.inst     58238000                       # number of overall miss ticks (Tick)
system.cpu.icache.overallMissLatency::total     58238000                       # number of overall miss ticks (Tick)
system.cpu.icache.demandAccesses::cpu.inst      3303379                       # number of demand (read+write) accesses (Count)
system.cpu.icache.demandAccesses::total       3303379                       # number of demand (read+write) accesses (Count)
system.cpu.icache.overallAccesses::cpu.inst      3303379                       # number of overall (read+write) accesses (Count)
system.cpu.icache.overallAccesses::total      3303379                       # number of overall (read+write) accesses (Count)
system.cpu.icache.demandMissRate::cpu.inst     0.000180                       # miss rate for demand accesses (Ratio)
system.cpu.icache.demandMissRate::total      0.000180                       # miss rate for demand accesses (Ratio)
system.cpu.icache.overallMissRate::cpu.inst     0.000180                       # miss rate for overall accesses (Ratio)
system.cpu.icache.overallMissRate::total     0.000180                       # miss rate for overall accesses (Ratio)
system.cpu.icache.demandAvgMissLatency::cpu.inst 97878.991597                       # average overall miss latency ((Cycle/Count))
system.cpu.icache.demandAvgMissLatency::total 97878.991597                       # average overall miss latency ((Cycle/Count))
system.cpu.icache.overallAvgMissLatency::cpu.inst 97878.991597                       # average overall miss latency ((Cycle/Count))
system.cpu.icache.overallAvgMissLatency::total 97878.991597                       # average overall miss latency ((Cycle/Count))
system.cpu.icache.blockedCycles::no_mshrs           92                       # number of cycles access was blocked (Cycle)
system.cpu.icache.blockedCycles::no_targets            0                       # number of cycles access was blocked (Cycle)
system.cpu.icache.blockedCauses::no_mshrs            3                       # number of times access was blocked (Count)
system.cpu.icache.blockedCauses::no_targets            0                       # number of times access was blocked (Count)
system.cpu.icache.avgBlocked::no_mshrs      30.666667                       # average number of cycles each access was blocked ((Cycle/Count))
system.cpu.icache.avgBlocked::no_targets          nan                       # average number of cycles each access was blocked ((Cycle/Count))
system.cpu.icache.writebacks::writebacks           19                       # number of writebacks (Count)
system.cpu.icache.writebacks::total                19                       # number of writebacks (Count)
system.cpu.icache.demandMshrHits::cpu.inst          128                       # number of demand (read+write) MSHR hits (Count)
system.cpu.icache.demandMshrHits::total           128                       # number of demand (read+write) MSHR hits (Count)
system.cpu.icache.overallMshrHits::cpu.inst          128                       # number of overall MSHR hits (Count)
system.cpu.icache.overallMshrHits::total          128                       # number of overall MSHR hits (Count)
system.cpu.icache.demandMshrMisses::cpu.inst          467                       # number of demand (read+write) MSHR misses (Count)
system.cpu.icache.demandMshrMisses::total          467                       # number of demand (read+write) MSHR misses (Count)
system.cpu.icache.overallMshrMisses::cpu.inst          467                       # number of overall MSHR misses (Count)
system.cpu.icache.overallMshrMisses::total          467                       # number of overall MSHR misses (Count)
system.cpu.icache.demandMshrMissLatency::cpu.inst     48282000                       # number of demand (read+write) MSHR miss ticks (Tick)
system.cpu.icache.demandMshrMissLatency::total     48282000                       # number of demand (read+write) MSHR miss ticks (Tick)
system.cpu.icache.overallMshrMissLatency::cpu.inst     48282000                       # number of overall MSHR miss ticks (Tick)
system.cpu.icache.overallMshrMissLatency::total     48282000                       # number of overall MSHR miss ticks (Tick)
system.cpu.icache.demandMshrMissRate::cpu.inst     0.000141                       # mshr miss ratio for demand accesses (Ratio)
system.cpu.icache.demandMshrMissRate::total     0.000141                       # mshr miss ratio for demand accesses (Ratio)
system.cpu.icache.overallMshrMissRate::cpu.inst     0.000141                       # mshr miss ratio for overall accesses (Ratio)
system.cpu.icache.overallMshrMissRate::total     0.000141                       # mshr miss ratio for overall accesses (Ratio)
system.cpu.icache.demandAvgMshrMissLatency::cpu.inst 103387.580300                       # average overall mshr miss latency ((Cycle/Count))
system.cpu.icache.demandAvgMshrMissLatency::total 103387.580300                       # average overall mshr miss latency ((Cycle/Count))
system.cpu.icache.overallAvgMshrMissLatency::cpu.inst 103387.580300                       # average overall mshr miss latency ((Cycle/Count))
system.cpu.icache.overallAvgMshrMissLatency::total 103387.580300                       # average overall mshr miss latency ((Cycle/Count))
system.cpu.icache.replacements                     19                       # number of replacements (Count)
system.cpu.icache.ReadReq.hits::cpu.inst      3302784                       # number of ReadReq hits (Count)
system.cpu.icache.ReadReq.hits::total         3302784                       # number of ReadReq hits (Count)
system.cpu.icache.ReadReq.misses::cpu.inst          595                       # number of ReadReq misses (Count)
system.cpu.icache.ReadReq.misses::total           595                       # number of ReadReq misses (Count)
system.cpu.icache.ReadReq.missLatency::cpu.inst     58238000                       # number of ReadReq miss ticks (Tick)
system.cpu.icache.ReadReq.missLatency::total     58238000                       # number of ReadReq miss ticks (Tick)
system.cpu.icache.ReadReq.accesses::cpu.inst      3303379                       # number of ReadReq accesses(hits+misses) (Count)
system.cpu.icache.ReadReq.accesses::total      3303379                       # number of ReadReq accesses(hits+misses) (Count)
system.cpu.icache.ReadReq.missRate::cpu.inst     0.000180                       # miss rate for ReadReq accesses (Ratio)
system.cpu.icache.ReadReq.missRate::total     0.000180                       # miss rate for ReadReq accesses (Ratio)
system.cpu.icache.ReadReq.avgMissLatency::cpu.inst 97878.991597                       # average ReadReq miss latency ((Tick/Count))
system.cpu.icache.ReadReq.avgMissLatency::total 97878.991597                       # average ReadReq miss latency ((Tick/Count))
system.cpu.icache.ReadReq.mshrHits::cpu.inst          128                       # number of ReadReq MSHR hits (Count)
system.cpu.icache.ReadReq.mshrHits::total          128                       # number of ReadReq MSHR hits (Count)
system.cpu.icache.ReadReq.mshrMisses::cpu.inst          467                       # number of ReadReq MSHR misses (Count)
system.cpu.icache.ReadReq.mshrMisses::total          467                       # number of ReadReq MSHR misses (Count)
system.cpu.icache.ReadReq.mshrMissLatency::cpu.inst     48282000                       # number of ReadReq MSHR miss ticks (Tick)
system.cpu.icache.ReadReq.mshrMissLatency::total     48282000                       # number of ReadReq MSHR miss ticks (Tick)
system.cpu.icache.ReadReq.mshrMissRate::cpu.inst     0.000141                       # mshr miss rate for ReadReq accesses (Ratio)
system.cpu.icache.ReadReq.mshrMissRate::total     0.000141                       # mshr miss rate for ReadReq accesses (Ratio)
system.cpu.icache.ReadReq.avgMshrMissLatency::cpu.inst 103387.580300                       # average ReadReq mshr miss latency ((Tick/Count))
system.cpu.icache.ReadReq.avgMshrMissLatency::total 103387.580300                       # average ReadReq mshr miss latency ((Tick/Count))
system.cpu.icache.power_state.pwrStateResidencyTicks::UNDEFINED  17586670000                       # Cumulative time (in ticks) in various power states (Tick)
system.cpu.icache.tags.tagsInUse           412.470331                       # Average ticks per tags in use ((Tick/Count))
system.cpu.icache.tags.totalRefs              3303250                       # Total number of references to valid blocks. (Count)
system.cpu.icache.tags.sampledRefs                466                       # Sample count of references to valid blocks. (Count)
system.cpu.icache.tags.avgRefs            7088.519313                       # Average number of references to valid blocks. ((Count/Count))
system.cpu.icache.tags.warmupTick              107000                       # The tick when the warmup percentage was hit. (Tick)
system.cpu.icache.tags.occupancies::cpu.inst   412.470331                       # Average occupied blocks per tick, per requestor ((Count/Tick))
system.cpu.icache.tags.avgOccs::cpu.inst     0.402803                       # Average percentage of cache occupancy ((Ratio/Tick))
system.cpu.icache.tags.avgOccs::total        0.402803                       # Average percentage of cache occupancy ((Ratio/Tick))
system.cpu.icache.tags.occupanciesTaskId::1024          447                       # Occupied blocks per task id (Count)
system.cpu.icache.tags.ageTaskId_1024::0           38                       # Occupied blocks per task id, per block age (Count)
system.cpu.icache.tags.ageTaskId_1024::4          409                       # Occupied blocks per task id, per block age (Count)
system.cpu.icache.tags.ratioOccsTaskId::1024     0.436523                       # Ratio of occupied blocks and all blocks, per task id (Ratio)
system.cpu.icache.tags.tagAccesses            6607224                       # Number of tag accesses (Count)
system.cpu.icache.tags.dataAccesses           6607224                       # Number of data accesses (Count)
system.cpu.icache.tags.power_state.pwrStateResidencyTicks::UNDEFINED  17586670000                       # Cumulative time (in ticks) in various power states (Tick)
system.cpu.iew.idleCycles                           0                       # Number of cycles IEW is idle (Cycle)
system.cpu.iew.squashCycles                     25388                       # Number of cycles IEW is squashing (Cycle)
system.cpu.iew.blockCycles                    2402878                       # Number of cycles IEW is blocking (Cycle)
system.cpu.iew.unblockCycles                  1437878                       # Number of cycles IEW is unblocking (Cycle)
system.cpu.iew.dispatchedInsts               22698042                       # Number of instructions dispatched to IQ (Count)
system.cpu.iew.dispSquashedInsts                 6908                       # Number of squashed instructions skipped by dispatch (Count)
system.cpu.iew.dispLoadInsts                  4831636                       # Number of dispatched load instructions (Count)
system.cpu.iew.dispStoreInsts                   27508                       # Number of dispatched store instructions (Count)
system.cpu.iew.dispNonSpecInsts                     3                       # Number of dispatched non-speculative instructions (Count)
system.cpu.iew.iqFullEvents                     62264                       # Number of times the IQ has become full, causing a stall (Count)
system.cpu.iew.lsqFullEvents                  1264331                       # Number of times the LSQ has become full, causing a stall (Count)
system.cpu.iew.memOrderViolationEvents             14                       # Number of memory order violations (Count)
system.cpu.iew.predictedTakenIncorrect          27467                       # Number of branches that were predicted taken incorrectly (Count)
system.cpu.iew.predictedNotTakenIncorrect         1453                       # Number of branches that were predicted not taken incorrectly (Count)
system.cpu.iew.branchMispredicts                28920                       # Number of branch mispredicts detected at execute (Count)
system.cpu.iew.instsToCommit                 22492976                       # Cumulative count of insts sent to commit (Count)
system.cpu.iew.writebackCount                22491564                       # Cumulative count of insts written-back (Count)
system.cpu.iew.producerInst                  16986822                       # Number of instructions producing a value (Count)
system.cpu.iew.consumerInst                  23142343                       # Number of instructions consuming a value (Count)
system.cpu.iew.wbRate                        1.278898                       # Insts written-back per cycle ((Count/Cycle))
system.cpu.iew.wbFanout                      0.734015                       # Average fanout of values written-back ((Count/Count))
system.cpu.interrupts.clk_domain.clock          16000                       # Clock period in ticks (Tick)
system.cpu.itb_walker_cache.blockedCycles::no_mshrs            0                       # number of cycles access was blocked (Cycle)
system.cpu.itb_walker_cache.blockedCycles::no_targets            0                       # number of cycles access was blocked (Cycle)
system.cpu.itb_walker_cache.blockedCauses::no_mshrs            0                       # number of times access was blocked (Count)
system.cpu.itb_walker_cache.blockedCauses::no_targets            0                       # number of times access was blocked (Count)
system.cpu.itb_walker_cache.avgBlocked::no_mshrs          nan                       # average number of cycles each access was blocked ((Cycle/Count))
system.cpu.itb_walker_cache.avgBlocked::no_targets          nan                       # average number of cycles each access was blocked ((Cycle/Count))
system.cpu.itb_walker_cache.replacements            0                       # number of replacements (Count)
system.cpu.itb_walker_cache.power_state.pwrStateResidencyTicks::UNDEFINED  17586670000                       # Cumulative time (in ticks) in various power states (Tick)
system.cpu.itb_walker_cache.tags.tagsInUse            0                       # Average ticks per tags in use ((Tick/Count))
system.cpu.itb_walker_cache.tags.totalRefs            0                       # Total number of references to valid blocks. (Count)
system.cpu.itb_walker_cache.tags.sampledRefs            0                       # Sample count of references to valid blocks. (Count)
system.cpu.itb_walker_cache.tags.avgRefs          nan                       # Average number of references to valid blocks. ((Count/Count))
system.cpu.itb_walker_cache.tags.warmupTick            0                       # The tick when the warmup percentage was hit. (Tick)
system.cpu.itb_walker_cache.tags.tagAccesses            0                       # Number of tag accesses (Count)
system.cpu.itb_walker_cache.tags.dataAccesses            0                       # Number of data accesses (Count)
system.cpu.itb_walker_cache.tags.power_state.pwrStateResidencyTicks::UNDEFINED  17586670000                       # Cumulative time (in ticks) in various power states (Tick)
system.cpu.lsq0.forwLoads                         178                       # Number of loads that had data forwarded from stores (Count)
system.cpu.lsq0.squashedLoads                   77460                       # Number of loads squashed (Count)
system.cpu.lsq0.ignoredResponses                    2                       # Number of memory responses ignored because the instruction is squashed (Count)
system.cpu.lsq0.memOrderViolation                  14                       # Number of memory ordering violations (Count)
system.cpu.lsq0.squashedStores                   1334                       # Number of stores squashed (Count)
system.cpu.lsq0.rescheduledLoads                    0                       # Number of loads that were rescheduled (Count)
system.cpu.lsq0.blockedByCache                1009482                       # Number of times an access to memory failed due to the cache being blocked (Count)
system.cpu.lsq0.loadToUse::samples            4754176                       # Distribution of cycle latency between the first time a load is issued and its completion (Unspecified)
system.cpu.lsq0.loadToUse::mean             55.422866                       # Distribution of cycle latency between the first time a load is issued and its completion (Unspecified)
system.cpu.lsq0.loadToUse::stdev            42.005704                       # Distribution of cycle latency between the first time a load is issued and its completion (Unspecified)
system.cpu.lsq0.loadToUse::0-9                 410936      8.64%      8.64% # Distribution of cycle latency between the first time a load is issued and its completion (Unspecified)
system.cpu.lsq0.loadToUse::10-19               415319      8.74%     17.38% # Distribution of cycle latency between the first time a load is issued and its completion (Unspecified)
system.cpu.lsq0.loadToUse::20-29               766396     16.12%     33.50% # Distribution of cycle latency between the first time a load is issued and its completion (Unspecified)
system.cpu.lsq0.loadToUse::30-39               468638      9.86%     43.36% # Distribution of cycle latency between the first time a load is issued and its completion (Unspecified)
system.cpu.lsq0.loadToUse::40-49               305684      6.43%     49.79% # Distribution of cycle latency between the first time a load is issued and its completion (Unspecified)
system.cpu.lsq0.loadToUse::50-59               552741     11.63%     61.41% # Distribution of cycle latency between the first time a load is issued and its completion (Unspecified)
system.cpu.lsq0.loadToUse::60-69               253642      5.34%     66.75% # Distribution of cycle latency between the first time a load is issued and its completion (Unspecified)
system.cpu.lsq0.loadToUse::70-79               267329      5.62%     72.37% # Distribution of cycle latency between the first time a load is issued and its completion (Unspecified)
system.cpu.lsq0.loadToUse::80-89               347573      7.31%     79.68% # Distribution of cycle latency between the first time a load is issued and its completion (Unspecified)
system.cpu.lsq0.loadToUse::90-99               370008      7.78%     87.47% # Distribution of cycle latency between the first time a load is issued and its completion (Unspecified)
[...]
system.mem_ctrls.dram.perBankWrBursts::12            0                       # Per bank write bursts (Count)
system.mem_ctrls.dram.perBankWrBursts::13            0                       # Per bank write bursts (Count)
system.mem_ctrls.dram.perBankWrBursts::14            0                       # Per bank write bursts (Count)
system.mem_ctrls.dram.perBankWrBursts::15           57                       # Per bank write bursts (Count)
system.mem_ctrls.dram.totQLat              1369609000                       # Total ticks spent queuing (Tick)
system.mem_ctrls.dram.totBusLat            1014215000                       # Total ticks spent in databus transfers (Tick)
system.mem_ctrls.dram.totMemAccLat         5172915250                       # Total ticks spent from burst creation until serviced by the DRAM (Tick)
system.mem_ctrls.dram.avgQLat                 6752.06                       # Average queueing delay per DRAM burst ((Tick/Count))
system.mem_ctrls.dram.avgBusLat               5000.00                       # Average bus latency per DRAM burst ((Tick/Count))
system.mem_ctrls.dram.avgMemAccLat           25502.06                       # Average memory access latency per DRAM burst ((Tick/Count))
system.mem_ctrls.dram.readRowHits              182220                       # Number of row buffer hits during reads (Count)
system.mem_ctrls.dram.writeRowHits               1238                       # Number of row buffer hits during writes (Count)
system.mem_ctrls.dram.readRowHitRate            89.83                       # Row buffer hit rate for reads (Ratio)
system.mem_ctrls.dram.writeRowHitRate           88.30                       # Row buffer hit rate for writes (Ratio)
system.mem_ctrls.dram.bytesPerActivate::samples        20775                       # Bytes accessed per row activation (Byte)
system.mem_ctrls.dram.bytesPerActivate::mean   629.066859                       # Bytes accessed per row activation (Byte)
system.mem_ctrls.dram.bytesPerActivate::gmean   403.793531                       # Bytes accessed per row activation (Byte)
system.mem_ctrls.dram.bytesPerActivate::stdev   406.790151                       # Bytes accessed per row activation (Byte)
system.mem_ctrls.dram.bytesPerActivate::0-127         4692     22.58%     22.58% # Bytes accessed per row activation (Byte)
system.mem_ctrls.dram.bytesPerActivate::128-255         1674      8.06%     30.64% # Bytes accessed per row activation (Byte)
system.mem_ctrls.dram.bytesPerActivate::256-383          787      3.79%     34.43% # Bytes accessed per row activation (Byte)
system.mem_ctrls.dram.bytesPerActivate::384-511          571      2.75%     37.18% # Bytes accessed per row activation (Byte)
system.mem_ctrls.dram.bytesPerActivate::512-639          579      2.79%     39.97% # Bytes accessed per row activation (Byte)
system.mem_ctrls.dram.bytesPerActivate::640-767         1557      7.49%     47.46% # Bytes accessed per row activation (Byte)
system.mem_ctrls.dram.bytesPerActivate::768-895         1941      9.34%     56.80% # Bytes accessed per row activation (Byte)
system.mem_ctrls.dram.bytesPerActivate::896-1023          333      1.60%     58.41% # Bytes accessed per row activation (Byte)
system.mem_ctrls.dram.bytesPerActivate::1024-1151         8641     41.59%    100.00% # Bytes accessed per row activation (Byte)
system.mem_ctrls.dram.bytesPerActivate::total        20775                       # Bytes accessed per row activation (Byte)
system.mem_ctrls.dram.bytesRead              12981952                       # Total bytes read (Byte)
system.mem_ctrls.dram.bytesWritten              89728                       # Total bytes written (Byte)
system.mem_ctrls.dram.avgRdBW              738.169989                       # Average DRAM read bandwidth in MiBytes/s ((Byte/Second))
system.mem_ctrls.dram.avgWrBW                5.102046                       # Average DRAM write bandwidth in MiBytes/s ((Byte/Second))
system.mem_ctrls.dram.peakBW                 12800.00                       # Theoretical peak bandwidth in MiByte/s ((Byte/Second))
system.mem_ctrls.dram.busUtil                    5.81                       # Data bus utilization in percentage (Ratio)
system.mem_ctrls.dram.busUtilRead                5.77                       # Data bus utilization in percentage for reads (Ratio)
system.mem_ctrls.dram.busUtilWrite               0.04                       # Data bus utilization in percentage for writes (Ratio)
system.mem_ctrls.dram.pageHitRate               89.82                       # Row buffer hit rate, read and write combined (Ratio)
system.mem_ctrls.dram.power_state.pwrStateResidencyTicks::UNDEFINED  17586670000                       # Cumulative time (in ticks) in various power states (Tick)
system.mem_ctrls.dram.rank0.actEnergy        86379720                       # Energy for activate commands per rank (pJ) (Joule)
system.mem_ctrls.dram.rank0.preEnergy        45889140                       # Energy for precharge commands per rank (pJ) (Joule)
system.mem_ctrls.dram.rank0.readEnergy      730214940                       # Energy for read commands per rank (pJ) (Joule)
system.mem_ctrls.dram.rank0.writeEnergy       7020900                       # Energy for write commands per rank (pJ) (Joule)
system.mem_ctrls.dram.rank0.refreshEnergy 1387857120.000000                       # Energy for refresh commands per rank (pJ) (Joule)
system.mem_ctrls.dram.rank0.actBackEnergy   6264863730                       # Energy for active background per rank (pJ) (Joule)
system.mem_ctrls.dram.rank0.preBackEnergy   1477606560                       # Energy for precharge background per rank (pJ) (Joule)
system.mem_ctrls.dram.rank0.actPowerDownEnergy            0                       # Energy for active power-down per rank (pJ) (Joule)
system.mem_ctrls.dram.rank0.prePowerDownEnergy            0                       # Energy for precharge power-down per rank (pJ) (Joule)
system.mem_ctrls.dram.rank0.selfRefreshEnergy            0                       # Energy for self refresh per rank (pJ) (Joule)
system.mem_ctrls.dram.rank0.totalEnergy    9999832110                       # Total energy per rank (pJ) (Joule)
system.mem_ctrls.dram.rank0.averagePower   568.602931                       # Core power per rank (mW) (Watt)
system.mem_ctrls.dram.rank0.totalIdleTime            0                       # Total Idle time Per DRAM Rank (Tick)
system.mem_ctrls.dram.rank0.pwrStateTime::IDLE   3770674500                       # Time in different power states (Tick)
system.mem_ctrls.dram.rank0.pwrStateTime::REF    587080000                       # Time in different power states (Tick)
system.mem_ctrls.dram.rank0.pwrStateTime::SREF            0                       # Time in different power states (Tick)
system.mem_ctrls.dram.rank0.pwrStateTime::PRE_PDN            0                       # Time in different power states (Tick)
system.mem_ctrls.dram.rank0.pwrStateTime::ACT  13228915500                       # Time in different power states (Tick)
system.mem_ctrls.dram.rank0.pwrStateTime::ACT_PDN            0                       # Time in different power states (Tick)
system.mem_ctrls.dram.rank1.actEnergy        62039460                       # Energy for activate commands per rank (pJ) (Joule)
system.mem_ctrls.dram.rank1.preEnergy        32951985                       # Energy for precharge commands per rank (pJ) (Joule)
system.mem_ctrls.dram.rank1.readEnergy      718084080                       # Energy for read commands per rank (pJ) (Joule)
system.mem_ctrls.dram.rank1.writeEnergy        297540                       # Energy for write commands per rank (pJ) (Joule)
system.mem_ctrls.dram.rank1.refreshEnergy 1387857120.000000                       # Energy for refresh commands per rank (pJ) (Joule)
system.mem_ctrls.dram.rank1.actBackEnergy   5261561130                       # Energy for active background per rank (pJ) (Joule)
system.mem_ctrls.dram.rank1.preBackEnergy   2322492960                       # Energy for precharge background per rank (pJ) (Joule)
system.mem_ctrls.dram.rank1.actPowerDownEnergy            0                       # Energy for active power-down per rank (pJ) (Joule)
system.mem_ctrls.dram.rank1.prePowerDownEnergy            0                       # Energy for precharge power-down per rank (pJ) (Joule)
system.mem_ctrls.dram.rank1.selfRefreshEnergy            0                       # Energy for self refresh per rank (pJ) (Joule)
system.mem_ctrls.dram.rank1.totalEnergy    9785284275                       # Total energy per rank (pJ) (Joule)
system.mem_ctrls.dram.rank1.averagePower   556.403473                       # Core power per rank (mW) (Watt)
system.mem_ctrls.dram.rank1.totalIdleTime            0                       # Total Idle time Per DRAM Rank (Tick)
system.mem_ctrls.dram.rank1.pwrStateTime::IDLE   5968185000                       # Time in different power states (Tick)
system.mem_ctrls.dram.rank1.pwrStateTime::REF    587080000                       # Time in different power states (Tick)
system.mem_ctrls.dram.rank1.pwrStateTime::SREF            0                       # Time in different power states (Tick)
system.mem_ctrls.dram.rank1.pwrStateTime::PRE_PDN            0                       # Time in different power states (Tick)
system.mem_ctrls.dram.rank1.pwrStateTime::ACT  11031405000                       # Time in different power states (Tick)
system.mem_ctrls.dram.rank1.pwrStateTime::ACT_PDN            0                       # Time in different power states (Tick)
system.mem_ctrls.power_state.pwrStateResidencyTicks::UNDEFINED  17586670000                       # Cumulative time (in ticks) in various power states (Tick)
system.membus.transDist::ReadResp              202732                       # Transaction distribution (Count)
system.membus.transDist::WritebackDirty          1428                       # Transaction distribution (Count)
system.membus.transDist::CleanEvict            168238                       # Transaction distribution (Count)
system.membus.transDist::ReadExReq                111                       # Transaction distribution (Count)
system.membus.transDist::ReadExResp               111                       # Transaction distribution (Count)
system.membus.transDist::ReadSharedReq         202732                       # Transaction distribution (Count)
system.membus.pktCount_system.l2.mem_side_port::system.mem_ctrls.port       575352                       # Packet count per connected requestor and responder (Count)
system.membus.pktCount_system.l2.mem_side_port::total       575352                       # Packet count per connected requestor and responder (Count)
system.membus.pktCount::total                  575352                       # Packet count per connected requestor and responder (Count)
system.membus.pktSize_system.l2.mem_side_port::system.mem_ctrls.port     13073344                       # Cumulative packet size per connected requestor and responder (Byte)
system.membus.pktSize_system.l2.mem_side_port::total     13073344                       # Cumulative packet size per connected requestor and responder (Byte)
system.membus.pktSize::total                 13073344                       # Cumulative packet size per connected requestor and responder (Byte)
system.membus.snoops                                0                       # Total snoops (Count)
system.membus.snoopTraffic                          0                       # Total snoop traffic (Byte)
system.membus.snoopFanout::samples             202843                       # Request fanout histogram (Count)
system.membus.snoopFanout::mean                     0                       # Request fanout histogram (Count)
system.membus.snoopFanout::stdev                    0                       # Request fanout histogram (Count)
system.membus.snoopFanout::underflows               0      0.00%      0.00% # Request fanout histogram (Count)
system.membus.snoopFanout::0                   202843    100.00%    100.00% # Request fanout histogram (Count)
system.membus.snoopFanout::1                        0      0.00%    100.00% # Request fanout histogram (Count)
system.membus.snoopFanout::overflows                0      0.00%    100.00% # Request fanout histogram (Count)
system.membus.snoopFanout::min_value                0                       # Request fanout histogram (Count)
system.membus.snoopFanout::max_value                0                       # Request fanout histogram (Count)
system.membus.snoopFanout::total               202843                       # Request fanout histogram (Count)
system.membus.power_state.pwrStateResidencyTicks::UNDEFINED  17586670000                       # Cumulative time (in ticks) in various power states (Tick)
system.membus.reqLayer2.occupancy           378221000                       # Layer occupancy (ticks) (Tick)
system.membus.reqLayer2.utilization               0.0                       # Layer utilization (Ratio)
system.membus.respLayer1.occupancy         1069342500                       # Layer occupancy (ticks) (Tick)
system.membus.respLayer1.utilization              0.1                       # Layer utilization (Ratio)
system.membus.snoop_filter.totRequests         372509                       # Total number of requests made to the snoop filter. (Count)
system.membus.snoop_filter.hitSingleRequests       169666                       # Number of requests hitting in the snoop filter with a single holder of the requested data. (Count)
system.membus.snoop_filter.hitMultiRequests            0                       # Number of requests hitting in the snoop filter with multiple (>1) holders of the requested data. (Count)
system.membus.snoop_filter.totSnoops                0                       # Total number of snoops made to the snoop filter. (Count)
system.membus.snoop_filter.hitSingleSnoops            0                       # Number of snoops hitting in the snoop filter with a single holder of the requested data. (Count)
system.membus.snoop_filter.hitMultiSnoops            0                       # Number of snoops hitting in the snoop filter with multiple (>1) holders of the requested data. (Count)
system.tol2bus.transDist::ReadResp            1423607                       # Transaction distribution (Count)
system.tol2bus.transDist::WritebackDirty         3321                       # Transaction distribution (Count)
system.tol2bus.transDist::WritebackClean           19                       # Transaction distribution (Count)
system.tol2bus.transDist::CleanEvict          1588988                       # Transaction distribution (Count)
system.tol2bus.transDist::ReadExReq               113                       # Transaction distribution (Count)
system.tol2bus.transDist::ReadExResp              113                       # Transaction distribution (Count)
system.tol2bus.transDist::ReadCleanReq            467                       # Transaction distribution (Count)
system.tol2bus.transDist::ReadSharedReq       1423141                       # Transaction distribution (Count)
system.tol2bus.pktCount_system.cpu.icache.mem_side_port::system.l2.cpu_side_port          952                       # Packet count per connected requestor and responder (Count)
system.tol2bus.pktCount_system.cpu.dcache.mem_side_port::system.l2.cpu_side_port      4268738                       # Packet count per connected requestor and responder (Count)
system.tol2bus.pktCount::total                4269690                       # Packet count per connected requestor and responder (Count)
system.tol2bus.pktSize_system.cpu.icache.mem_side_port::system.l2.cpu_side_port        31040                       # Cumulative packet size per connected requestor and responder (Byte)
system.tol2bus.pktSize_system.cpu.dcache.mem_side_port::system.l2.cpu_side_port     91209408                       # Cumulative packet size per connected requestor and responder (Byte)
system.tol2bus.pktSize::total                91240448                       # Cumulative packet size per connected requestor and responder (Byte)
system.tol2bus.snoops                          170079                       # Total snoops (Count)
system.tol2bus.snoopTraffic                     91392                       # Total snoop traffic (Byte)
system.tol2bus.snoopFanout::samples           1593800                       # Request fanout histogram (Count)
system.tol2bus.snoopFanout::mean             0.000259                       # Request fanout histogram (Count)
system.tol2bus.snoopFanout::stdev            0.016095                       # Request fanout histogram (Count)
system.tol2bus.snoopFanout::underflows              0      0.00%      0.00% # Request fanout histogram (Count)
system.tol2bus.snoopFanout::0                 1593387     99.97%     99.97% # Request fanout histogram (Count)
system.tol2bus.snoopFanout::1                     413      0.03%    100.00% # Request fanout histogram (Count)
system.tol2bus.snoopFanout::2                       0      0.00%    100.00% # Request fanout histogram (Count)
system.tol2bus.snoopFanout::3                       0      0.00%    100.00% # Request fanout histogram (Count)
system.tol2bus.snoopFanout::4                       0      0.00%    100.00% # Request fanout histogram (Count)
system.tol2bus.snoopFanout::overflows               0      0.00%    100.00% # Request fanout histogram (Count)
system.tol2bus.snoopFanout::min_value               0                       # Request fanout histogram (Count)
system.tol2bus.snoopFanout::max_value               1                       # Request fanout histogram (Count)
system.tol2bus.snoopFanout::total             1593800                       # Request fanout histogram (Count)
system.tol2bus.power_state.pwrStateResidencyTicks::UNDEFINED  17586670000                       # Cumulative time (in ticks) in various power states (Tick)
system.tol2bus.reqLayer0.occupancy         2849794000                       # Layer occupancy (ticks) (Tick)
system.tol2bus.reqLayer0.utilization              0.2                       # Layer utilization (Ratio)
system.tol2bus.respLayer0.occupancy           1398000                       # Layer occupancy (ticks) (Tick)
system.tol2bus.respLayer0.utilization             0.0                       # Layer utilization (Ratio)
system.tol2bus.respLayer1.occupancy        4269762000                       # Layer occupancy (ticks) (Tick)
system.tol2bus.respLayer1.utilization             0.2                       # Layer utilization (Ratio)
system.tol2bus.snoop_filter.totRequests       2845970                       # Total number of requests made to the snoop filter. (Count)
system.tol2bus.snoop_filter.hitSingleRequests      1422249                       # Number of requests hitting in the snoop filter with a single holder of the requested data. (Count)
system.tol2bus.snoop_filter.hitMultiRequests            0                       # Number of requests hitting in the snoop filter with multiple (>1) holders of the requested data. (Count)
system.tol2bus.snoop_filter.totSnoops             413                       # Total number of snoops made to the snoop filter. (Count)
system.tol2bus.snoop_filter.hitSingleSnoops          413                       # Number of snoops hitting in the snoop filter with a single holder of the requested data. (Count)
system.tol2bus.snoop_filter.hitMultiSnoops            0                       # Number of snoops hitting in the snoop filter with multiple (>1) holders of the requested data. (Count)
system.voltage_domain.voltage                       1                       # Voltage in Volts (Volt)
system.workload.inst.arm                            0                       # number of arm instructions executed (Count)
system.workload.inst.quiesce                        0                       # number of quiesce instructions executed (Count)

---------- End Simulation Statistics   ----------
