
---------- Begin Simulation Statistics ----------
simSeconds                                   0.000476                       # Number of seconds simulated (Second)
simTicks                                    475693250                       # Number of ticks simulated (Tick)
finalTick                                   475693250                       # Number of ticks from beginning of simulation (restored from checkpoints and never reset) (Tick)
simFreq                                  1000000000000                       # The number of ticks per simulated second ((Tick/Second))
hostSeconds                                     28.76                       # Real time elapsed on the host (Second)
hostTickRate                                 16540910                       # The number of ticks simulated per host second (ticks/s) ((Tick/Second))
hostMemory                                     651764                       # Number of bytes of host memory used (Byte)
simInsts                                      2512309                       # Number of instructions simulated (Count)
simOps                                        4197990                       # Number of ops (including micro ops) simulated (Count)
hostInstRate                                    87357                       # Simulator instruction rate (inst/s) ((Count/Second))
hostOpRate                                     145971                       # Simulator op (including micro ops) rate (op/s) ((Count/Second))
system.clk_domain.clock                           250                       # Clock period in ticks (Tick)
system.cpu.numCycles                          1902774                       # Number of cpu cycles simulated (Cycle)
system.cpu.numWorkItemsStarted                      0                       # Number of work items this cpu started (Count)
system.cpu.numWorkItemsCompleted                    0                       # Number of work items this cpu completed (Count)
system.cpu.instsAdded                         6132573                       # Number of instructions added to the IQ (excludes non-spec) (Count)
system.cpu.nonSpecInstsAdded                        7                       # Number of non-speculative instructions added to the IQ (Count)
system.cpu.instsIssued                        5845987                       # Number of instructions issued (Count)
system.cpu.squashedInstsIssued                  16095                       # Number of squashed instructions issued (Count)
system.cpu.squashedInstsExamined              1934584                       # Number of squashed instructions iterated over during squash; mainly for profiling (Count)
system.cpu.squashedOperandsExamined           1495310                       # Number of squashed operands that are examined and possibly removed from graph (Count)
system.cpu.squashedNonSpecRemoved                   7                       # Number of squashed non-spec instructions that were removed (Count)
system.cpu.numIssuedDist::samples             1854454                       # Number of insts issued each cycle (Count)
system.cpu.numIssuedDist::mean               3.152403                       # Number of insts issued each cycle (Count)
system.cpu.numIssuedDist::stdev              2.783847                       # Number of insts issued each cycle (Count)
system.cpu.numIssuedDist::underflows                0      0.00%      0.00% # Number of insts issued each cycle (Count)
system.cpu.numIssuedDist::0                    655694     35.36%     35.36% # Number of insts issued each cycle (Count)
system.cpu.numIssuedDist::1                     58089      3.13%     38.49% # Number of insts issued each cycle (Count)
system.cpu.numIssuedDist::2                    126760      6.84%     45.33% # Number of insts issued each cycle (Count)
system.cpu.numIssuedDist::3                    136148      7.34%     52.67% # Number of insts issued each cycle (Count)
system.cpu.numIssuedDist::4                    116942      6.31%     58.97% # Number of insts issued each cycle (Count)
system.cpu.numIssuedDist::5                    208896     11.26%     70.24% # Number of insts issued each cycle (Count)
system.cpu.numIssuedDist::6                    309566     16.69%     86.93% # Number of insts issued each cycle (Count)
system.cpu.numIssuedDist::7                    182582      9.85%     96.78% # Number of insts issued each cycle (Count)
system.cpu.numIssuedDist::8                     59777      3.22%    100.00% # Number of insts issued each cycle (Count)
system.cpu.numIssuedDist::overflows                 0      0.00%    100.00% # Number of insts issued each cycle (Count)
system.cpu.numIssuedDist::min_value                 0                       # Number of insts issued each cycle (Count)
system.cpu.numIssuedDist::max_value                 8                       # Number of insts issued each cycle (Count)
system.cpu.numIssuedDist::total               1854454                       # Number of insts issued each cycle (Count)
system.cpu.statFuBusy::No_OpClass                   0      0.00%      0.00% # attempts to use FU when none available (Count)
system.cpu.statFuBusy::IntAlu                  191812     99.96%     99.96% # attempts to use FU when none available (Count)
system.cpu.statFuBusy::IntMult                      0      0.00%     99.96% # attempts to use FU when none available (Count)
system.cpu.statFuBusy::IntDiv                       0      0.00%     99.96% # attempts to use FU when none available (Count)
system.cpu.statFuBusy::FloatAdd                     0      0.00%     99.96% # attempts to use FU when none available (Count)
system.cpu.statFuBusy::FloatCmp                     0      0.00%     99.96% # attempts to use FU when none available (Count)
system.cpu.statFuBusy::FloatCvt                     0      0.00%     99.96% # attempts to use FU when none available (Count)
system.cpu.statFuBusy::FloatMult                    0      0.00%     99.96% # attempts to use FU when none available (Count)
system.cpu.statFuBusy::FloatMultAcc                 0      0.00%     99.96% # attempts to use FU when none available (Count)
system.cpu.statFuBusy::FloatDiv                     0      0.00%     99.96% # attempts to use FU when none available (Count)
system.cpu.statFuBusy::FloatMisc                    0      0.00%     99.96% # attempts to use FU when none available (Count)
system.cpu.statFuBusy::FloatSqrt                    0      0.00%     99.96% # attempts to use FU when none available (Count)
system.cpu.statFuBusy::SimdAdd                      0      0.00%     99.96% # attempts to use FU when none available (Count)
system.cpu.statFuBusy::SimdAddAcc                   0      0.00%     99.96% # attempts to use FU when none available (Count)
system.cpu.statFuBusy::SimdAlu                     11      0.01%     99.96% # attempts to use FU when none available (Count)
system.cpu.statFuBusy::SimdCmp                      0      0.00%     99.96% # attempts to use FU when none available (Count)
system.cpu.statFuBusy::SimdCvt                      1      0.00%     99.96% # attempts to use FU when none available (Count)
system.cpu.statFuBusy::SimdMisc                     2      0.00%     99.96% # attempts to use FU when none available (Count)
system.cpu.statFuBusy::SimdMult                     0      0.00%     99.96% # attempts to use FU when none available (Count)
system.cpu.statFuBusy::SimdMultAcc                  0      0.00%     99.96% # attempts to use FU when none available (Count)
system.cpu.statFuBusy::SimdShift                    0      0.00%     99.96% # attempts to use FU when none available (Count)
system.cpu.statFuBusy::SimdShiftAcc                 0      0.00%     99.96% # attempts to use FU when none available (Count)
system.cpu.statFuBusy::SimdDiv                      0      0.00%     99.96% # attempts to use FU when none available (Count)
system.cpu.statFuBusy::SimdSqrt                     0      0.00%     99.96% # attempts to use FU when none available (Count)
system.cpu.statFuBusy::SimdFloatAdd                 0      0.00%     99.96% # attempts to use FU when none available (Count)
system.cpu.statFuBusy::SimdFloatAlu                 0      0.00%     99.96% # attempts to use FU when none available (Count)
system.cpu.statFuBusy::SimdFloatCmp                 0      0.00%     99.96% # attempts to use FU when none available (Count)
system.cpu.statFuBusy::SimdFloatCvt                 0      0.00%     99.96% # attempts to use FU when none available (Count)
system.cpu.statFuBusy::SimdFloatDiv                 0      0.00%     99.96% # attempts to use FU when none available (Count)
system.cpu.statFuBusy::SimdFloatMisc                0      0.00%     99.96% # attempts to use FU when none available (Count)
system.cpu.statFuBusy::SimdFloatMult                0      0.00%     99.96% # attempts to use FU when none available (Count)
system.cpu.statFuBusy::SimdFloatMultAcc             0      0.00%     99.96% # attempts to use FU when none available (Count)
system.cpu.statFuBusy::SimdFloatSqrt                0      0.00%     99.96% # attempts to use FU when none available (Count)
system.cpu.statFuBusy::SimdReduceAdd                0      0.00%     99.96% # attempts to use FU when none available (Count)
system.cpu.statFuBusy::SimdReduceAlu                0      0.00%     99.96% # attempts to use FU when none available (Count)
system.cpu.statFuBusy::SimdReduceCmp                0      0.00%     99.96% # attempts to use FU when none available (Count)
system.cpu.statFuBusy::SimdFloatReduceAdd            0      0.00%     99.96% # attempts to use FU when none available (Count)
system.cpu.statFuBusy::SimdFloatReduceCmp            0      0.00%     99.96% # attempts to use FU when none available (Count)
system.cpu.statFuBusy::SimdAes                      0      0.00%     99.96% # attempts to use FU when none available (Count)
system.cpu.statFuBusy::SimdAesMix                   0      0.00%     99.96% # attempts to use FU when none available (Count)
system.cpu.statFuBusy::SimdSha1Hash                 0      0.00%     99.96% # attempts to use FU when none available (Count)
system.cpu.statFuBusy::SimdSha1Hash2                0      0.00%     99.96% # attempts to use FU when none available (Count)
system.cpu.statFuBusy::SimdSha256Hash               0      0.00%     99.96% # attempts to use FU when none available (Count)
system.cpu.statFuBusy::SimdSha256Hash2              0      0.00%     99.96% # attempts to use FU when none available (Count)
system.cpu.statFuBusy::SimdShaSigma2                0      0.00%     99.96% # attempts to use FU when none available (Count)
system.cpu.statFuBusy::SimdShaSigma3                0      0.00%     99.96% # attempts to use FU when none available (Count)
system.cpu.statFuBusy::SimdPredAlu                  0      0.00%     99.96% # attempts to use FU when none available (Count)
system.cpu.statFuBusy::MemRead                     32      0.02%     99.98% # attempts to use FU when none available (Count)
system.cpu.statFuBusy::MemWrite                    13      0.01%     99.99% # attempts to use FU when none available (Count)
system.cpu.statFuBusy::FloatMemRead                11      0.01%     99.99% # attempts to use FU when none available (Count)
system.cpu.statFuBusy::FloatMemWrite               13      0.01%    100.00% # attempts to use FU when none available (Count)
system.cpu.statFuBusy::IprAccess                    0      0.00%    100.00% # attempts to use FU when none available (Count)
system.cpu.statFuBusy::InstPrefetch                 0      0.00%    100.00% # attempts to use FU when none available (Count)
system.cpu.statIssuedInstType_0::No_OpClass        30377      0.52%      0.52% # Number of instructions issued per FU type, per thread (Count)
system.cpu.statIssuedInstType_0::IntAlu       4957647     84.80%     85.32% # Number of instructions issued per FU type, per thread (Count)
system.cpu.statIssuedInstType_0::IntMult            5      0.00%     85.32% # Number of instructions issued per FU type, per thread (Count)
system.cpu.statIssuedInstType_0::IntDiv            21      0.00%     85.32% # Number of instructions issued per FU type, per thread (Count)
system.cpu.statIssuedInstType_0::FloatAdd          136      0.00%     85.33% # Number of instructions issued per FU type, per thread (Count)
system.cpu.statIssuedInstType_0::FloatCmp            0      0.00%     85.33% # Number of instructions issued per FU type, per thread (Count)
system.cpu.statIssuedInstType_0::FloatCvt            0      0.00%     85.33% # Number of instructions issued per FU type, per thread (Count)
system.cpu.statIssuedInstType_0::FloatMult            0      0.00%     85.33% # Number of instructions issued per FU type, per thread (Count)
system.cpu.statIssuedInstType_0::FloatMultAcc            0      0.00%     85.33% # Number of instructions issued per FU type, per thread (Count)
system.cpu.statIssuedInstType_0::FloatDiv            0      0.00%     85.33% # Number of instructions issued per FU type, per thread (Count)
system.cpu.statIssuedInstType_0::FloatMisc            0      0.00%     85.33% # Number of instructions issued per FU type, per thread (Count)
system.cpu.statIssuedInstType_0::FloatSqrt            0      0.00%     85.33% # Number of instructions issued per FU type, per thread (Count)
system.cpu.statIssuedInstType_0::SimdAdd            0      0.00%     85.33% # Number of instructions issued per FU type, per thread (Count)
system.cpu.statIssuedInstType_0::SimdAddAcc            0      0.00%     85.33% # Number of instructions issued per FU type, per thread (Count)
system.cpu.statIssuedInstType_0::SimdAlu          156      0.00%     85.33% # Number of instructions issued per FU type, per thread (Count)
system.cpu.statIssuedInstType_0::SimdCmp            0      0.00%     85.33% # Number of instructions issued per FU type, per thread (Count)
system.cpu.statIssuedInstType_0::SimdCvt           49      0.00%     85.33% # Number of instructions issued per FU type, per thread (Count)
system.cpu.statIssuedInstType_0::SimdMisc          218      0.00%     85.33% # Number of instructions issued per FU type, per thread (Count)
system.cpu.statIssuedInstType_0::SimdMult            0      0.00%     85.33% # Number of instructions issued per FU type, per thread (Count)
system.cpu.statIssuedInstType_0::SimdMultAcc            0      0.00%     85.33% # Number of instructions issued per FU type, per thread (Count)
system.cpu.statIssuedInstType_0::SimdShift            0      0.00%     85.33% # Number of instructions issued per FU type, per thread (Count)
system.cpu.statIssuedInstType_0::SimdShiftAcc            0      0.00%     85.33% # Number of instructions issued per FU type, per thread (Count)
system.cpu.statIssuedInstType_0::SimdDiv            0      0.00%     85.33% # Number of instructions issued per FU type, per thread (Count)
system.cpu.statIssuedInstType_0::SimdSqrt            0      0.00%     85.33% # Number of instructions issued per FU type, per thread (Count)
system.cpu.statIssuedInstType_0::SimdFloatAdd            0      0.00%     85.33% # Number of instructions issued per FU type, per thread (Count)
system.cpu.statIssuedInstType_0::SimdFloatAlu            0      0.00%     85.33% # Number of instructions issued per FU type, per thread (Count)
system.cpu.statIssuedInstType_0::SimdFloatCmp            0      0.00%     85.33% # Number of instructions issued per FU type, per thread (Count)
system.cpu.statIssuedInstType_0::SimdFloatCvt            0      0.00%     85.33% # Number of instructions issued per FU type, per thread (Count)
system.cpu.statIssuedInstType_0::SimdFloatDiv            0      0.00%     85.33% # Number of instructions issued per FU type, per thread (Count)
system.cpu.statIssuedInstType_0::SimdFloatMisc            0      0.00%     85.33% # Number of instructions issued per FU type, per thread (Count)
system.cpu.statIssuedInstType_0::SimdFloatMult            0      0.00%     85.33% # Number of instructions issued per FU type, per thread (Count)
system.cpu.statIssuedInstType_0::SimdFloatMultAcc            0      0.00%     85.33% # Number of instructions issued per FU type, per thread (Count)
system.cpu.statIssuedInstType_0::SimdFloatSqrt            0      0.00%     85.33% # Number of instructions issued per FU type, per thread (Count)
system.cpu.statIssuedInstType_0::SimdReduceAdd            0      0.00%     85.33% # Number of instructions issued per FU type, per thread (Count)
system.cpu.statIssuedInstType_0::SimdReduceAlu            0      0.00%     85.33% # Number of instructions issued per FU type, per thread (Count)
system.cpu.statIssuedInstType_0::SimdReduceCmp            0      0.00%     85.33% # Number of instructions issued per FU type, per thread (Count)
system.cpu.statIssuedInstType_0::SimdFloatReduceAdd            0      0.00%     85.33% # Number of instructions issued per FU type, per thread (Count)
system.cpu.statIssuedInstType_0::SimdFloatReduceCmp            0      0.00%     85.33% # Number of instructions issued per FU type, per thread (Count)
system.cpu.statIssuedInstType_0::SimdAes            0      0.00%     85.33% # Number of instructions issued per FU type, per thread (Count)
system.cpu.statIssuedInstType_0::SimdAesMix            0      0.00%     85.33% # Number of instructions issued per FU type, per thread (Count)
system.cpu.statIssuedInstType_0::SimdSha1Hash            0      0.00%     85.33% # Number of instructions issued per FU type, per thread (Count)
system.cpu.statIssuedInstType_0::SimdSha1Hash2            0      0.00%     85.33% # Number of instructions issued per FU type, per thread (Count)
system.cpu.statIssuedInstType_0::SimdSha256Hash            0      0.00%     85.33% # Number of instructions issued per FU type, per thread (Count)
system.cpu.statIssuedInstType_0::SimdSha256Hash2            0      0.00%     85.33% # Number of instructions issued per FU type, per thread (Count)
system.cpu.statIssuedInstType_0::SimdShaSigma2            0      0.00%     85.33% # Number of instructions issued per FU type, per thread (Count)
system.cpu.statIssuedInstType_0::SimdShaSigma3            0      0.00%     85.33% # Number of instructions issued per FU type, per thread (Count)
system.cpu.statIssuedInstType_0::SimdPredAlu            0      0.00%     85.33% # Number of instructions issued per FU type, per thread (Count)
system.cpu.statIssuedInstType_0::MemRead       445256      7.62%     92.95% # Number of instructions issued per FU type, per thread (Count)
system.cpu.statIssuedInstType_0::MemWrite       304492      5.21%     98.16% # Number of instructions issued per FU type, per thread (Count)
system.cpu.statIssuedInstType_0::FloatMemRead        55643      0.95%     99.11% # Number of instructions issued per FU type, per thread (Count)
system.cpu.statIssuedInstType_0::FloatMemWrite        51987      0.89%    100.00% # Number of instructions issued per FU type, per thread (Count)
system.cpu.statIssuedInstType_0::IprAccess            0      0.00%    100.00% # Number of instructions issued per FU type, per thread (Count)
system.cpu.statIssuedInstType_0::InstPrefetch            0      0.00%    100.00% # Number of instructions issued per FU type, per thread (Count)
system.cpu.statIssuedInstType_0::total        5845987                       # Number of instructions issued per FU type, per thread (Count)
system.cpu.issueRate                         3.072350                       # Inst issue rate ((Count/Cycle))
system.cpu.fuBusy                              191895                       # FU busy when requested (Count)
system.cpu.fuBusyRate                        0.032825                       # FU busy rate (busy events/executed inst) ((Count/Count))
system.cpu.intInstQueueReads                 13537716                       # Number of integer instruction queue reads (Count)
system.cpu.intInstQueueWrites                 7948554                       # Number of integer instruction queue writes (Count)
system.cpu.intInstQueueWakeupAccesses         5492988                       # Number of integer instruction queue wakeup accesses (Count)
system.cpu.fpInstQueueReads                    216702                       # Number of floating instruction queue reads (Count)
system.cpu.fpInstQueueWrites                   118633                       # Number of floating instruction queue writes (Count)
system.cpu.fpInstQueueWakeupAccesses           103419                       # Number of floating instruction queue wakeup accesses (Count)
system.cpu.vecInstQueueReads                        0                       # Number of vector instruction queue reads (Count)
system.cpu.vecInstQueueWrites                       0                       # Number of vector instruction queue writes (Count)
system.cpu.vecInstQueueWakeupAccesses               0                       # Number of vector instruction queue wakeup accesses (Count)
system.cpu.intAluAccesses                     5899137                       # Number of integer alu accesses (Count)
system.cpu.fpAluAccesses                       108368                       # Number of floating point alu accesses (Count)
system.cpu.vecAluAccesses                           0                       # Number of vector alu accesses (Count)
system.cpu.numInsts                           5651851                       # Number of executed instructions (Count)
system.cpu.numLoadInsts                        482788                       # Number of load instructions executed (Count)
system.cpu.numSquashedInsts                    194136                       # Number of squashed instructions skipped in execute (Count)
system.cpu.numSwp                                   0                       # Number of swp insts executed (Count)
system.cpu.numNop                                   0                       # Number of nop insts executed (Count)
system.cpu.numRefs                             823003                       # Number of memory reference insts executed (Count)
system.cpu.numBranches                         675864                       # Number of branches executed (Count)
system.cpu.numStoreInsts                       340215                       # Number of stores executed (Count)
system.cpu.numRate                           2.970322                       # Inst execution rate ((Count/Cycle))
system.cpu.timesIdled                             348                       # Number of times that the entire CPU went into an idle state and unscheduled itself (Count)
system.cpu.idleCycles                           48320                       # Total number of cycles that the CPU has spent unscheduled due to idling (Cycle)
system.cpu.committedInsts                     2512309                       # Number of Instructions Simulated (Count)
system.cpu.committedOps                       4197990                       # Number of Ops (including micro ops) Simulated (Count)
system.cpu.cpi                               0.757381                       # CPI: Cycles Per Instruction ((Cycle/Count))
system.cpu.totalCpi                          0.757381                       # CPI: Total CPI of All Threads ((Cycle/Count))
system.cpu.ipc                               1.320340                       # IPC: Instructions Per Cycle ((Count/Cycle))
system.cpu.totalIpc                          1.320340                       # IPC: Total IPC of All Threads ((Count/Cycle))
system.cpu.intRegfileReads                    7843230                       # Number of integer regfile reads (Count)
system.cpu.intRegfileWrites                   4518648                       # Number of integer regfile writes (Count)
system.cpu.fpRegfileReads                       52220                       # Number of floating regfile reads (Count)
system.cpu.fpRegfileWrites                      52909                       # Number of floating regfile writes (Count)
system.cpu.ccRegfileReads                     3239578                       # number of cc regfile reads (Count)
system.cpu.ccRegfileWrites                    2334233                       # number of cc regfile writes (Count)
system.cpu.miscRegfileReads                   2244082                       # number of misc regfile reads (Count)
system.cpu.MemDepUnit__0.insertedLoads         513213                       # Number of loads inserted to the mem dependence unit. (Count)
system.cpu.MemDepUnit__0.insertedStores        391249                       # Number of stores inserted to the mem dependence unit. (Count)
system.cpu.MemDepUnit__0.conflictingLoads        34292                       # Number of conflicting loads. (Count)
system.cpu.MemDepUnit__0.conflictingStores        11275                       # Number of conflicting stores. (Count)
system.cpu.MemDepUnit__1.insertedLoads              0                       # Number of loads inserted to the mem dependence unit. (Count)
system.cpu.MemDepUnit__1.insertedStores             0                       # Number of stores inserted to the mem dependence unit. (Count)
system.cpu.MemDepUnit__1.conflictingLoads            0                       # Number of conflicting loads. (Count)
system.cpu.MemDepUnit__1.conflictingStores            0                       # Number of conflicting stores. (Count)
system.cpu.MemDepUnit__2.insertedLoads              0                       # Number of loads inserted to the mem dependence unit. (Count)
system.cpu.MemDepUnit__2.insertedStores             0                       # Number of stores inserted to the mem dependence unit. (Count)
system.cpu.MemDepUnit__2.conflictingLoads            0                       # Number of conflicting loads. (Count)
system.cpu.MemDepUnit__2.conflictingStores            0                       # Number of conflicting stores. (Count)
system.cpu.MemDepUnit__3.insertedLoads              0                       # Number of loads inserted to the mem dependence unit. (Count)
system.cpu.MemDepUnit__3.insertedStores             0                       # Number of stores inserted to the mem dependence unit. (Count)
system.cpu.MemDepUnit__3.conflictingLoads            0                       # Number of conflicting loads. (Count)
system.cpu.MemDepUnit__3.conflictingStores            0                       # Number of conflicting stores. (Count)
system.cpu.branchPred.lookups                  928573                       # Number of BP lookups (Count)
system.cpu.branchPred.condPredicted            787999                       # Number of conditional branches predicted (Count)
system.cpu.branchPred.condIncorrect             58805                       # Number of conditional branches incorrect (Count)
system.cpu.branchPred.BTBLookups               294266                       # Number of BTB lookups (Count)
system.cpu.branchPred.BTBHits                  293141                       # Number of BTB hits (Count)
system.cpu.branchPred.BTBHitRatio            0.996177                       # BTB Hit Ratio (Ratio)
system.cpu.branchPred.RASUsed                    9362                       # Number of times the RAS was used to get a target. (Count)
system.cpu.branchPred.RASIncorrect                  3                       # Number of incorrect RAS predictions. (Count)
system.cpu.branchPred.indirectLookups             333                       # Number of indirect predictor lookups. (Count)
system.cpu.branchPred.indirectHits                 18                       # Number of indirect target hits. (Count)
system.cpu.branchPred.indirectMisses              315                       # Number of indirect misses. (Count)
system.cpu.branchPred.indirectMispredicted           93                       # Number of mispredicted indirect branches. (Count)
system.cpu.commit.commitSquashedInsts         1934515                       # The number of squashed insts skipped by commit (Count)
system.cpu.commit.branchMispredicts             57196                       # The number of times a branch was mispredicted (Count)
system.cpu.commit.numCommittedDist::samples      1586522                       # Number of insts commited each cycle (Count)
system.cpu.commit.numCommittedDist::mean     2.646033                       # Number of insts commited each cycle (Count)
system.cpu.commit.numCommittedDist::stdev     2.880118                       # Number of insts commited each cycle (Count)
system.cpu.commit.numCommittedDist::underflows            0      0.00%      0.00% # Number of insts commited each cycle (Count)
system.cpu.commit.numCommittedDist::0          573441     36.14%     36.14% # Number of insts commited each cycle (Count)
system.cpu.commit.numCommittedDist::1          170687     10.76%     46.90% # Number of insts commited each cycle (Count)
system.cpu.commit.numCommittedDist::2          207896     13.10%     60.01% # Number of insts commited each cycle (Count)
system.cpu.commit.numCommittedDist::3          128461      8.10%     68.10% # Number of insts commited each cycle (Count)
system.cpu.commit.numCommittedDist::4          143206      9.03%     77.13% # Number of insts commited each cycle (Count)
system.cpu.commit.numCommittedDist::5           32987      2.08%     79.21% # Number of insts commited each cycle (Count)
system.cpu.commit.numCommittedDist::6           69837      4.40%     83.61% # Number of insts commited each cycle (Count)
system.cpu.commit.numCommittedDist::7           10709      0.67%     84.29% # Number of insts commited each cycle (Count)
system.cpu.commit.numCommittedDist::8          249298     15.71%    100.00% # Number of insts commited each cycle (Count)
system.cpu.commit.numCommittedDist::overflows            0      0.00%    100.00% # Number of insts commited each cycle (Count)
system.cpu.commit.numCommittedDist::min_value            0                       # Number of insts commited each cycle (Count)
system.cpu.commit.numCommittedDist::max_value            8                       # Number of insts commited each cycle (Count)
system.cpu.commit.numCommittedDist::total      1586522                       # Number of insts commited each cycle (Count)
system.cpu.commit.instsCommitted              2512309                       # Number of instructions committed (Count)
system.cpu.commit.opsCommitted                4197990                       # Number of ops (including micro ops) committed (Count)
system.cpu.commit.memRefs                      655839                       # Number of memory references committed (Count)
system.cpu.commit.loads                        375959                       # Number of loads committed (Count)
system.cpu.commit.amos                              0                       # Number of atomic instructions committed (Count)
system.cpu.commit.membars                           0                       # Number of memory barriers committed (Count)
system.cpu.commit.branches                     512172                       # Number of branches committed (Count)
system.cpu.commit.vectorInstructions                0                       # Number of committed Vector instructions. (Count)
system.cpu.commit.floating                      99585                       # Number of committed floating point instructions. (Count)
system.cpu.commit.integer                     4164486                       # Number of committed integer instructions. (Count)
system.cpu.commit.functionCalls                  8334                       # Number of function calls committed. (Count)
system.cpu.commit.committedInstType_0::No_OpClass        28855      0.69%      0.69% # Class of committed instruction (Count)
system.cpu.commit.committedInstType_0::IntAlu      3512780     83.68%     84.37% # Class of committed instruction (Count)
system.cpu.commit.committedInstType_0::IntMult            5      0.00%     84.37% # Class of committed instruction (Count)
system.cpu.commit.committedInstType_0::IntDiv           21      0.00%     84.37% # Class of committed instruction (Count)
system.cpu.commit.committedInstType_0::FloatAdd          135      0.00%     84.37% # Class of committed instruction (Count)
system.cpu.commit.committedInstType_0::FloatCmp            0      0.00%     84.37% # Class of committed instruction (Count)
system.cpu.commit.committedInstType_0::FloatCvt            0      0.00%     84.37% # Class of committed instruction (Count)
system.cpu.commit.committedInstType_0::FloatMult            0      0.00%     84.37% # Class of committed instruction (Count)
system.cpu.commit.committedInstType_0::FloatMultAcc            0      0.00%     84.37% # Class of committed instruction (Count)
system.cpu.commit.committedInstType_0::FloatDiv            0      0.00%     84.37% # Class of committed instruction (Count)
system.cpu.commit.committedInstType_0::FloatMisc            0      0.00%     84.37% # Class of committed instruction (Count)
system.cpu.commit.committedInstType_0::FloatSqrt            0      0.00%     84.37% # Class of committed instruction (Count)
system.cpu.commit.committedInstType_0::SimdAdd            0      0.00%     84.37% # Class of committed instruction (Count)
system.cpu.commit.committedInstType_0::SimdAddAcc            0      0.00%     84.37% # Class of committed instruction (Count)
system.cpu.commit.committedInstType_0::SimdAlu           94      0.00%     84.37% # Class of committed instruction (Count)
system.cpu.commit.committedInstType_0::SimdCmp            0      0.00%     84.37% # Class of committed instruction (Count)
system.cpu.commit.committedInstType_0::SimdCvt           46      0.00%     84.37% # Class of committed instruction (Count)
system.cpu.commit.committedInstType_0::SimdMisc          215      0.01%     84.38% # Class of committed instruction (Count)
system.cpu.commit.committedInstType_0::SimdMult            0      0.00%     84.38% # Class of committed instruction (Count)
system.cpu.commit.committedInstType_0::SimdMultAcc            0      0.00%     84.38% # Class of committed instruction (Count)
system.cpu.commit.committedInstType_0::SimdShift            0      0.00%     84.38% # Class of committed instruction (Count)
system.cpu.commit.committedInstType_0::SimdShiftAcc            0      0.00%     84.38% # Class of committed instruction (Count)
system.cpu.commit.committedInstType_0::SimdDiv            0      0.00%     84.38% # Class of committed instruction (Count)
system.cpu.commit.committedInstType_0::SimdSqrt            0      0.00%     84.38% # Class of committed instruction (Count)
system.cpu.commit.committedInstType_0::SimdFloatAdd            0      0.00%     84.38% # Class of committed instruction (Count)
system.cpu.commit.committedInstType_0::SimdFloatAlu            0      0.00%     84.38% # Class of committed instruction (Count)
system.cpu.commit.committedInstType_0::SimdFloatCmp            0      0.00%     84.38% # Class of committed instruction (Count)
system.cpu.commit.committedInstType_0::SimdFloatCvt            0      0.00%     84.38% # Class of committed instruction (Count)
system.cpu.commit.committedInstType_0::SimdFloatDiv            0      0.00%     84.38% # Class of committed instruction (Count)
system.cpu.commit.committedInstType_0::SimdFloatMisc            0      0.00%     84.38% # Class of committed instruction (Count)
system.cpu.commit.committedInstType_0::SimdFloatMult            0      0.00%     84.38% # Class of committed instruction (Count)
system.cpu.commit.committedInstType_0::SimdFloatMultAcc            0      0.00%     84.38% # Class of committed instruction (Count)
system.cpu.commit.committedInstType_0::SimdFloatSqrt            0      0.00%     84.38% # Class of committed instruction (Count)
system.cpu.commit.committedInstType_0::SimdReduceAdd            0      0.00%     84.38% # Class of committed instruction (Count)
system.cpu.commit.committedInstType_0::SimdReduceAlu            0      0.00%     84.38% # Class of committed instruction (Count)
system.cpu.commit.committedInstType_0::SimdReduceCmp            0      0.00%     84.38% # Class of committed instruction (Count)
system.cpu.commit.committedInstType_0::SimdFloatReduceAdd            0      0.00%     84.38% # Class of committed instruction (Count)
system.cpu.commit.committedInstType_0::SimdFloatReduceCmp            0      0.00%     84.38% # Class of committed instruction (Count)
system.cpu.commit.committedInstType_0::SimdAes            0      0.00%     84.38% # Class of committed instruction (Count)
system.cpu.commit.committedInstType_0::SimdAesMix            0      0.00%     84.38% # Class of committed instruction (Count)
system.cpu.commit.committedInstType_0::SimdSha1Hash            0      0.00%     84.38% # Class of committed instruction (Count)
system.cpu.commit.committedInstType_0::SimdSha1Hash2            0      0.00%     84.38% # Class of committed instruction (Count)
system.cpu.commit.committedInstType_0::SimdSha256Hash            0      0.00%     84.38% # Class of committed instruction (Count)
system.cpu.commit.committedInstType_0::SimdSha256Hash2            0      0.00%     84.38% # Class of committed instruction (Count)
system.cpu.commit.committedInstType_0::SimdShaSigma2            0      0.00%     84.38% # Class of committed instruction (Count)
system.cpu.commit.committedInstType_0::SimdShaSigma3            0      0.00%     84.38% # Class of committed instruction (Count)
system.cpu.commit.committedInstType_0::SimdPredAlu            0      0.00%     84.38% # Class of committed instruction (Count)
system.cpu.commit.committedInstType_0::MemRead       326687      7.78%     92.16% # Class of committed instruction (Count)
system.cpu.commit.committedInstType_0::MemWrite       230196      5.48%     97.64% # Class of committed instruction (Count)
system.cpu.commit.committedInstType_0::FloatMemRead        49272      1.17%     98.82% # Class of committed instruction (Count)
system.cpu.commit.committedInstType_0::FloatMemWrite        49684      1.18%    100.00% # Class of committed instruction (Count)
system.cpu.commit.committedInstType_0::IprAccess            0      0.00%    100.00% # Class of committed instruction (Count)
system.cpu.commit.committedInstType_0::InstPrefetch            0      0.00%    100.00% # Class of committed instruction (Count)
system.cpu.commit.committedInstType_0::total      4197990                       # Class of committed instruction (Count)
system.cpu.commit.commitEligibleSamples        249298                       # number cycles where commit BW limit reached (Cycle)
system.cpu.dcache.demandHits::cpu.data         719204                       # number of demand (read+write) hits (Count)
system.cpu.dcache.demandHits::total            719204                       # number of demand (read+write) hits (Count)
system.cpu.dcache.overallHits::cpu.data        719204                       # number of overall hits (Count)
system.cpu.dcache.overallHits::total           719204                       # number of overall hits (Count)
system.cpu.dcache.demandMisses::cpu.data         2288                       # number of demand (read+write) misses (Count)
system.cpu.dcache.demandMisses::total            2288                       # number of demand (read+write) misses (Count)
system.cpu.dcache.overallMisses::cpu.data         2288                       # number of overall misses (Count)
system.cpu.dcache.overallMisses::total           2288                       # number of overall misses (Count)
system.cpu.dcache.demandMissLatency::cpu.data    103325998                       # number of demand (read+write) miss ticks (Tick)
system.cpu.dcache.demandMissLatency::total    103325998                       # number of demand (read+write) miss ticks (Tick)
system.cpu.dcache.overallMissLatency::cpu.data    103325998                       # number of overall miss ticks (Tick)
system.cpu.dcache.overallMissLatency::total    103325998                       # number of overall miss ticks (Tick)
system.cpu.dcache.demandAccesses::cpu.data       721492                       # number of demand (read+write) accesses (Count)
system.cpu.dcache.demandAccesses::total        721492                       # number of demand (read+write) accesses (Count)
system.cpu.dcache.overallAccesses::cpu.data       721492                       # number of overall (read+write) accesses (Count)
system.cpu.dcache.overallAccesses::total       721492                       # number of overall (read+write) accesses (Count)
system.cpu.dcache.demandMissRate::cpu.data     0.003171                       # miss rate for demand accesses (Ratio)
system.cpu.dcache.demandMissRate::total      0.003171                       # miss rate for demand accesses (Ratio)
system.cpu.dcache.overallMissRate::cpu.data     0.003171                       # miss rate for overall accesses (Ratio)
system.cpu.dcache.overallMissRate::total     0.003171                       # miss rate for overall accesses (Ratio)
system.cpu.dcache.demandAvgMissLatency::cpu.data 45159.964161                       # average overall miss latency ((Cycle/Count))
system.cpu.dcache.demandAvgMissLatency::total 45159.964161                       # average overall miss latency ((Cycle/Count))
system.cpu.dcache.overallAvgMissLatency::cpu.data 45159.964161                       # average overall miss latency ((Cycle/Count))
system.cpu.dcache.overallAvgMissLatency::total 45159.964161                       # average overall miss latency ((Cycle/Count))
system.cpu.dcache.blockedCycles::no_mshrs         3203                       # number of cycles access was blocked (Cycle)
system.cpu.dcache.blockedCycles::no_targets            0                       # number of cycles access was blocked (Cycle)
system.cpu.dcache.blockedCauses::no_mshrs           22                       # number of times access was blocked (Count)
system.cpu.dcache.blockedCauses::no_targets            0                       # number of times access was blocked (Count)
system.cpu.dcache.avgBlocked::no_mshrs     145.590909                       # average number of cycles each access was blocked ((Cycle/Count))
system.cpu.dcache.avgBlocked::no_targets          nan                       # average number of cycles each access was blocked ((Cycle/Count))
system.cpu.dcache.writebacks::writebacks          186                       # number of writebacks (Count)
system.cpu.dcache.writebacks::total               186                       # number of writebacks (Count)
system.cpu.dcache.demandMshrHits::cpu.data          996                       # number of demand (read+write) MSHR hits (Count)
system.cpu.dcache.demandMshrHits::total           996                       # number of demand (read+write) MSHR hits (Count)
system.cpu.dcache.overallMshrHits::cpu.data          996                       # number of overall MSHR hits (Count)
system.cpu.dcache.overallMshrHits::total          996                       # number of overall MSHR hits (Count)
system.cpu.dcache.demandMshrMisses::cpu.data         1292                       # number of demand (read+write) MSHR misses (Count)
system.cpu.dcache.demandMshrMisses::total         1292                       # number of demand (read+write) MSHR misses (Count)
system.cpu.dcache.overallMshrMisses::cpu.data         1292                       # number of overall MSHR misses (Count)
system.cpu.dcache.overallMshrMisses::total         1292                       # number of overall MSHR misses (Count)
system.cpu.dcache.demandMshrMissLatency::cpu.data     64485249                       # number of demand (read+write) MSHR miss ticks (Tick)
system.cpu.dcache.demandMshrMissLatency::total     64485249                       # number of demand (read+write) MSHR miss ticks (Tick)
system.cpu.dcache.overallMshrMissLatency::cpu.data     64485249                       # number of overall MSHR miss ticks (Tick)
system.cpu.dcache.overallMshrMissLatency::total     64485249                       # number of overall MSHR miss ticks (Tick)
system.cpu.dcache.demandMshrMissRate::cpu.data     0.001791                       # mshr miss ratio for demand accesses (Ratio)
system.cpu.dcache.demandMshrMissRate::total     0.001791                       # mshr miss ratio for demand accesses (Ratio)
system.cpu.dcache.overallMshrMissRate::cpu.data     0.001791                       # mshr miss ratio for overall accesses (Ratio)
system.cpu.dcache.overallMshrMissRate::total     0.001791                       # mshr miss ratio for overall accesses (Ratio)
system.cpu.dcache.demandAvgMshrMissLatency::cpu.data 49911.183437                       # average overall mshr miss latency ((Cycle/Count))
system.cpu.dcache.demandAvgMshrMissLatency::total 49911.183437                       # average overall mshr miss latency ((Cycle/Count))
system.cpu.dcache.overallAvgMshrMissLatency::cpu.data 49911.183437                       # average overall mshr miss latency ((Cycle/Count))
system.cpu.dcache.overallAvgMshrMissLatency::total 49911.183437                       # average overall mshr miss latency ((Cycle/Count))
system.cpu.dcache.replacements                    268                       # number of replacements (Count)
system.cpu.dcache.ReadReq.hits::cpu.data       439960                       # number of ReadReq hits (Count)
system.cpu.dcache.ReadReq.hits::total          439960                       # number of ReadReq hits (Count)
system.cpu.dcache.ReadReq.misses::cpu.data         1651                       # number of ReadReq misses (Count)
system.cpu.dcache.ReadReq.misses::total          1651                       # number of ReadReq misses (Count)
system.cpu.dcache.ReadReq.missLatency::cpu.data     72717500                       # number of ReadReq miss ticks (Tick)
system.cpu.dcache.ReadReq.missLatency::total     72717500                       # number of ReadReq miss ticks (Tick)
system.cpu.dcache.ReadReq.accesses::cpu.data       441611                       # number of ReadReq accesses(hits+misses) (Count)
system.cpu.dcache.ReadReq.accesses::total       441611                       # number of ReadReq accesses(hits+misses) (Count)
system.cpu.dcache.ReadReq.missRate::cpu.data     0.003739                       # miss rate for ReadReq accesses (Ratio)
system.cpu.dcache.ReadReq.missRate::total     0.003739                       # miss rate for ReadReq accesses (Ratio)
system.cpu.dcache.ReadReq.avgMissLatency::cpu.data 44044.518474                       # average ReadReq miss latency ((Tick/Count))
system.cpu.dcache.ReadReq.avgMissLatency::total 44044.518474                       # average ReadReq miss latency ((Tick/Count))
system.cpu.dcache.ReadReq.mshrHits::cpu.data          992                       # number of ReadReq MSHR hits (Count)
system.cpu.dcache.ReadReq.mshrHits::total          992                       # number of ReadReq MSHR hits (Count)
system.cpu.dcache.ReadReq.mshrMisses::cpu.data          659                       # number of ReadReq MSHR misses (Count)
system.cpu.dcache.ReadReq.mshrMisses::total          659                       # number of ReadReq MSHR misses (Count)
system.cpu.dcache.ReadReq.mshrMissLatency::cpu.data     34286000                       # number of ReadReq MSHR miss ticks (Tick)
system.cpu.dcache.ReadReq.mshrMissLatency::total     34286000                       # number of ReadReq MSHR miss ticks (Tick)
system.cpu.dcache.ReadReq.mshrMissRate::cpu.data     0.001492                       # mshr miss rate for ReadReq accesses (Ratio)
system.cpu.dcache.ReadReq.mshrMissRate::total     0.001492                       # mshr miss rate for ReadReq accesses (Ratio)
system.cpu.dcache.ReadReq.avgMshrMissLatency::cpu.data 52027.314112                       # average ReadReq mshr miss latency ((Tick/Count))
system.cpu.dcache.ReadReq.avgMshrMissLatency::total 52027.314112                       # average ReadReq mshr miss latency ((Tick/Count))
system.cpu.dcache.WriteReq.hits::cpu.data       279244                       # number of WriteReq hits (Count)
system.cpu.dcache.WriteReq.hits::total         279244                       # number of WriteReq hits (Count)
system.cpu.dcache.WriteReq.misses::cpu.data          637                       # number of WriteReq misses (Count)
system.cpu.dcache.WriteReq.misses::total          637                       # number of WriteReq misses (Count)
system.cpu.dcache.WriteReq.missLatency::cpu.data     30608498                       # number of WriteReq miss ticks (Tick)
system.cpu.dcache.WriteReq.missLatency::total     30608498                       # number of WriteReq miss ticks (Tick)
system.cpu.dcache.WriteReq.accesses::cpu.data       279881                       # number of WriteReq accesses(hits+misses) (Count)
system.cpu.dcache.WriteReq.accesses::total       279881                       # number of WriteReq accesses(hits+misses) (Count)
system.cpu.dcache.WriteReq.missRate::cpu.data     0.002276                       # miss rate for WriteReq accesses (Ratio)
system.cpu.dcache.WriteReq.missRate::total     0.002276                       # miss rate for WriteReq accesses (Ratio)
system.cpu.dcache.WriteReq.avgMissLatency::cpu.data 48051.017268                       # average WriteReq miss latency ((Tick/Count))
system.cpu.dcache.WriteReq.avgMissLatency::total 48051.017268                       # average WriteReq miss latency ((Tick/Count))
system.cpu.dcache.WriteReq.mshrHits::cpu.data            4                       # number of WriteReq MSHR hits (Count)
system.cpu.dcache.WriteReq.mshrHits::total            4                       # number of WriteReq MSHR hits (Count)
system.cpu.dcache.WriteReq.mshrMisses::cpu.data          633                       # number of WriteReq MSHR misses (Count)
system.cpu.dcache.WriteReq.mshrMisses::total          633                       # number of WriteReq MSHR misses (Count)
system.cpu.dcache.WriteReq.mshrMissLatency::cpu.data     30199249                       # number of WriteReq MSHR miss ticks (Tick)
system.cpu.dcache.WriteReq.mshrMissLatency::total     30199249                       # number of WriteReq MSHR miss ticks (Tick)
system.cpu.dcache.WriteReq.mshrMissRate::cpu.data     0.002262                       # mshr miss rate for WriteReq accesses (Ratio)
system.cpu.dcache.WriteReq.mshrMissRate::total     0.002262                       # mshr miss rate for WriteReq accesses (Ratio)
system.cpu.dcache.WriteReq.avgMshrMissLatency::cpu.data 47708.134281                       # average WriteReq mshr miss latency ((Tick/Count))
system.cpu.dcache.WriteReq.avgMshrMissLatency::total 47708.134281                       # average WriteReq mshr miss latency ((Tick/Count))
system.cpu.dcache.power_state.pwrStateResidencyTicks::UNDEFINED    475693250                       # Cumulative time (in ticks) in various power states (Tick)
system.cpu.dcache.tags.tagsInUse           675.659131                       # Average ticks per tags in use ((Tick/Count))
system.cpu.dcache.tags.totalRefs               720496                       # Total number of references to valid blocks. (Count)
system.cpu.dcache.tags.sampledRefs               1292                       # Sample count of references to valid blocks. (Count)
system.cpu.dcache.tags.avgRefs             557.659443                       # Average number of references to valid blocks. ((Count/Count))
system.cpu.dcache.tags.warmupTick              126250                       # The tick when the warmup percentage was hit. (Tick)
system.cpu.dcache.tags.occupancies::cpu.data   675.659131                       # Average occupied blocks per tick, per requestor ((Count/Tick))
system.cpu.dcache.tags.avgOccs::cpu.data     0.659823                       # Average percentage of cache occupancy ((Ratio/Tick))
system.cpu.dcache.tags.avgOccs::total        0.659823                       # Average percentage of cache occupancy ((Ratio/Tick))
system.cpu.dcache.tags.occupanciesTaskId::1024         1024                       # Occupied blocks per task id (Count)
system.cpu.dcache.tags.ageTaskId_1024::0           37                       # Occupied blocks per task id, per block age (Count)
system.cpu.dcache.tags.ageTaskId_1024::1          130                       # Occupied blocks per task id, per block age (Count)
system.cpu.dcache.tags.ageTaskId_1024::2          857                       # Occupied blocks per task id, per block age (Count)
system.cpu.dcache.tags.ratioOccsTaskId::1024            1                       # Ratio of occupied blocks and all blocks, per task id (Ratio)
system.cpu.dcache.tags.tagAccesses            1444276                       # Number of tag accesses (Count)
system.cpu.dcache.tags.dataAccesses           1444276                       # Number of data accesses (Count)
system.cpu.dcache.tags.power_state.pwrStateResidencyTicks::UNDEFINED    475693250                       # Cumulative time (in ticks) in various power states (Tick)
system.cpu.decode.idleCycles                   424661                       # Number of cycles decode is idle (Cycle)
system.cpu.decode.blockedCycles                346701                       # Number of cycles decode is blocked (Cycle)
system.cpu.decode.runCycles                    945347                       # Number of cycles decode is running (Cycle)
system.cpu.decode.unblockCycles                 80514                       # Number of cycles decode is unblocking (Cycle)
system.cpu.decode.squashCycles                  57231                       # Number of cycles decode is squashing (Cycle)
system.cpu.decode.branchResolved               282056                       # Number of times decode resolved a branch (Count)
system.cpu.decode.branchMispred                  1842                       # Number of times decode detected a branch misprediction (Count)
system.cpu.decode.decodedInsts                6856511                       # Number of instructions handled by decode (Count)
system.cpu.decode.squashedInsts                  1758                       # Number of squashed instructions handled by decode (Count)
system.cpu.dtb_walker_cache.blockedCycles::no_mshrs            0                       # number of cycles access was blocked (Cycle)
system.cpu.dtb_walker_cache.blockedCycles::no_targets            0                       # number of cycles access was blocked (Cycle)
system.cpu.dtb_walker_cache.blockedCauses::no_mshrs            0                       # number of times access was blocked (Count)
system.cpu.dtb_walker_cache.blockedCauses::no_targets            0                       # number of times access was blocked (Count)
system.cpu.dtb_walker_cache.avgBlocked::no_mshrs          nan                       # average number of cycles each access was blocked ((Cycle/Count))
system.cpu.dtb_walker_cache.avgBlocked::no_targets          nan                       # average number of cycles each access was blocked ((Cycle/Count))
system.cpu.dtb_walker_cache.replacements            0                       # number of replacements (Count)
system.cpu.dtb_walker_cache.power_state.pwrStateResidencyTicks::UNDEFINED    475693250                       # Cumulative time (in ticks) in various power states (Tick)
system.cpu.dtb_walker_cache.tags.tagsInUse            0                       # Average ticks per tags in use ((Tick/Count))
system.cpu.dtb_walker_cache.tags.totalRefs            0                       # Total number of references to valid blocks. (Count)
system.cpu.dtb_walker_cache.tags.sampledRefs            0                       # Sample count of references to valid blocks. (Count)
system.cpu.dtb_walker_cache.tags.avgRefs          nan                       # Average number of references to valid blocks. ((Count/Count))
system.cpu.dtb_walker_cache.tags.warmupTick            0                       # The tick when the warmup percentage was hit. (Tick)
system.cpu.dtb_walker_cache.tags.tagAccesses            0                       # Number of tag accesses (Count)
system.cpu.dtb_walker_cache.tags.dataAccesses            0                       # Number of data accesses (Count)
system.cpu.dtb_walker_cache.tags.power_state.pwrStateResidencyTicks::UNDEFINED    475693250                       # Cumulative time (in ticks) in various power states (Tick)
system.cpu.fetch.icacheStallCycles             512485                       # Number of cycles fetch is stalled on an Icache miss (Cycle)
system.cpu.fetch.insts                        4266045                       # Number of instructions fetch has processed (Count)
system.cpu.fetch.branches                      928573                       # Number of branches that fetch encountered (Count)
system.cpu.fetch.predictedBranches             302521                       # Number of branches that fetch has predicted taken (Count)
system.cpu.fetch.cycles                       1281501                       # Number of cycles fetch has run and was not squashing or blocked (Cycle)
system.cpu.fetch.squashCycles                  118062                       # Number of cycles fetch has spent squashing (Cycle)
system.cpu.fetch.miscStallCycles                  208                       # Number of cycles fetch has spent waiting on interrupts, or bad addresses, or out of MSHRs (Cycle)
system.cpu.fetch.pendingTrapStallCycles          1226                       # Number of stall cycles due to pending traps (Cycle)
system.cpu.fetch.pendingQuiesceStallCycles            1                       # Number of stall cycles due to pending quiesce instructions (Cycle)
system.cpu.fetch.icacheWaitRetryStallCycles            2                       # Number of stall cycles due to full MSHR (Cycle)
system.cpu.fetch.cacheLines                    473180                       # Number of cache lines fetched (Count)
system.cpu.fetch.icacheSquashes                 17620                       # Number of outstanding Icache misses that were squashed (Count)
system.cpu.fetch.nisnDist::samples            1854454                       # Number of instructions fetched each cycle (Total) (Count)
system.cpu.fetch.nisnDist::mean              3.839651                       # Number of instructions fetched each cycle (Total) (Count)
system.cpu.fetch.nisnDist::stdev             3.620720                       # Number of instructions fetched each cycle (Total) (Count)
system.cpu.fetch.nisnDist::underflows               0      0.00%      0.00% # Number of instructions fetched each cycle (Total) (Count)
system.cpu.fetch.nisnDist::0                   700891     37.80%     37.80% # Number of instructions fetched each cycle (Total) (Count)
system.cpu.fetch.nisnDist::1                   105983      5.72%     43.51% # Number of instructions fetched each cycle (Total) (Count)
system.cpu.fetch.nisnDist::2                    85590      4.62%     48.13% # Number of instructions fetched each cycle (Total) (Count)
system.cpu.fetch.nisnDist::3                    63637      3.43%     51.56% # Number of instructions fetched each cycle (Total) (Count)
system.cpu.fetch.nisnDist::4                    64350      3.47%     55.03% # Number of instructions fetched each cycle (Total) (Count)
system.cpu.fetch.nisnDist::5                    55356      2.99%     58.01% # Number of instructions fetched each cycle (Total) (Count)
system.cpu.fetch.nisnDist::6                    23928      1.29%     59.30% # Number of instructions fetched each cycle (Total) (Count)
system.cpu.fetch.nisnDist::7                    63118      3.40%     62.71% # Number of instructions fetched each cycle (Total) (Count)
system.cpu.fetch.nisnDist::8                   691601     37.29%    100.00% # Number of instructions fetched each cycle (Total) (Count)
system.cpu.fetch.nisnDist::overflows                0      0.00%    100.00% # Number of instructions fetched each cycle (Total) (Count)
system.cpu.fetch.nisnDist::min_value                0                       # Number of instructions fetched each cycle (Total) (Count)
system.cpu.fetch.nisnDist::max_value                8                       # Number of instructions fetched each cycle (Total) (Count)
system.cpu.fetch.nisnDist::total              1854454                       # Number of instructions fetched each cycle (Total) (Count)
system.cpu.fetch.branchRate                  0.488010                       # Number of branch fetches per cycle (Ratio)
system.cpu.fetch.rate                        2.242014                       # Number of inst fetches per cycle ((Count/Cycle))
system.cpu.icache.demandHits::cpu.inst         472559                       # number of demand (read+write) hits (Count)
system.cpu.icache.demandHits::total            472559                       # number of demand (read+write) hits (Count)
system.cpu.icache.overallHits::cpu.inst        472559                       # number of overall hits (Count)
system.cpu.icache.overallHits::total           472559                       # number of overall hits (Count)
system.cpu.icache.demandMisses::cpu.inst          620                       # number of demand (read+write) misses (Count)
system.cpu.icache.demandMisses::total             620                       # number of demand (read+write) misses (Count)
system.cpu.icache.overallMisses::cpu.inst          620                       # number of overall misses (Count)
system.cpu.icache.overallMisses::total            620                       # number of overall misses (Count)
system.cpu.icache.demandMissLatency::cpu.inst     28520000                       # number of demand (read+write) miss ticks (Tick)
system.cpu.icache.demandMissLatency::total     28520000                       # number of demand (read+write) miss ticks (Tick)
system.cpu.icache.overallMissLatency::cpu.inst     28520000                       # number of overall miss ticks (Tick)
system.cpu.icache.overallMissLatency::total     28520000                       # number of overall miss ticks (Tick)
system.cpu.icache.demandAccesses::cpu.inst       473179                       # number of demand (read+write) accesses (Count)
system.cpu.icache.demandAccesses::total        473179                       # number of demand (read+write) accesses (Count)
system.cpu.icache.overallAccesses::cpu.inst       473179                       # number of overall (read+write) accesses (Count)
system.cpu.icache.overallAccesses::total       473179                       # number of overall (read+write) accesses (Count)
system.cpu.icache.demandMissRate::cpu.inst     0.001310                       # miss rate for demand accesses (Ratio)
system.cpu.icache.demandMissRate::total      0.001310                       # miss rate for demand accesses (Ratio)
system.cpu.icache.overallMissRate::cpu.inst     0.001310                       # miss rate for overall accesses (Ratio)
system.cpu.icache.overallMissRate::total     0.001310                       # miss rate for overall accesses (Ratio)
system.cpu.icache.demandAvgMissLatency::cpu.inst        46000                       # average overall miss latency ((Cycle/Count))
system.cpu.icache.demandAvgMissLatency::total        46000                       # average overall miss latency ((Cycle/Count))
system.cpu.icache.overallAvgMissLatency::cpu.inst        46000                       # average overall miss latency ((Cycle/Count))
system.cpu.icache.overallAvgMissLatency::total        46000                       # average overall miss latency ((Cycle/Count))
system.cpu.icache.blockedCycles::no_mshrs           85                       # number of cycles access was blocked (Cycle)
system.cpu.icache.blockedCycles::no_targets            0                       # number of cycles access was blocked (Cycle)
system.cpu.icache.blockedCauses::no_mshrs            3                       # number of times access was blocked (Count)
system.cpu.icache.blockedCauses::no_targets            0                       # number of times access was blocked (Count)
system.cpu.icache.avgBlocked::no_mshrs      28.333333                       # average number of cycles each access was blocked ((Cycle/Count))
system.cpu.icache.avgBlocked::no_targets          nan                       # average number of cycles each access was blocked ((Cycle/Count))
system.cpu.icache.writebacks::writebacks           31                       # number of writebacks (Count)
system.cpu.icache.writebacks::total                31                       # number of writebacks (Count)
system.cpu.icache.demandMshrHits::cpu.inst          139                       # number of demand (read+write) MSHR hits (Count)
system.cpu.icache.demandMshrHits::total           139                       # number of demand (read+write) MSHR hits (Count)
system.cpu.icache.overallMshrHits::cpu.inst          139                       # number of overall MSHR hits (Count)
system.cpu.icache.overallMshrHits::total          139                       # number of overall MSHR hits (Count)
system.cpu.icache.demandMshrMisses::cpu.inst          481                       # number of demand (read+write) MSHR misses (Count)
system.cpu.icache.demandMshrMisses::total          481                       # number of demand (read+write) MSHR misses (Count)
system.cpu.icache.overallMshrMisses::cpu.inst          481                       # number of overall MSHR misses (Count)
system.cpu.icache.overallMshrMisses::total          481                       # number of overall MSHR misses (Count)
system.cpu.icache.demandMshrMissLatency::cpu.inst     23321250                       # number of demand (read+write) MSHR miss ticks (Tick)
system.cpu.icache.demandMshrMissLatency::total     23321250                       # number of demand (read+write) MSHR miss ticks (Tick)
system.cpu.icache.overallMshrMissLatency::cpu.inst     23321250                       # number of overall MSHR miss ticks (Tick)
system.cpu.icache.overallMshrMissLatency::total     23321250                       # number of overall MSHR miss ticks (Tick)
system.cpu.icache.demandMshrMissRate::cpu.inst     0.001017                       # mshr miss ratio for demand accesses (Ratio)
system.cpu.icache.demandMshrMissRate::total     0.001017                       # mshr miss ratio for demand accesses (Ratio)
system.cpu.icache.overallMshrMissRate::cpu.inst     0.001017                       # mshr miss ratio for overall accesses (Ratio)
system.cpu.icache.overallMshrMissRate::total     0.001017                       # mshr miss ratio for overall accesses (Ratio)
system.cpu.icache.demandAvgMshrMissLatency::cpu.inst 48484.927235                       # average overall mshr miss latency ((Cycle/Count))
system.cpu.icache.demandAvgMshrMissLatency::total 48484.927235                       # average overall mshr miss latency ((Cycle/Count))
system.cpu.icache.overallAvgMshrMissLatency::cpu.inst 48484.927235                       # average overall mshr miss latency ((Cycle/Count))
system.cpu.icache.overallAvgMshrMissLatency::total 48484.927235                       # average overall mshr miss latency ((Cycle/Count))
system.cpu.icache.replacements                     31                       # number of replacements (Count)
system.cpu.icache.ReadReq.hits::cpu.inst       472559                       # number of ReadReq hits (Count)
system.cpu.icache.ReadReq.hits::total          472559                       # number of ReadReq hits (Count)
system.cpu.icache.ReadReq.misses::cpu.inst          620                       # number of ReadReq misses (Count)
system.cpu.icache.ReadReq.misses::total           620                       # number of ReadReq misses (Count)
system.cpu.icache.ReadReq.missLatency::cpu.inst     28520000                       # number of ReadReq miss ticks (Tick)
system.cpu.icache.ReadReq.missLatency::total     28520000                       # number of ReadReq miss ticks (Tick)
system.cpu.icache.ReadReq.accesses::cpu.inst       473179                       # number of ReadReq accesses(hits+misses) (Count)
system.cpu.icache.ReadReq.accesses::total       473179                       # number of ReadReq accesses(hits+misses) (Count)
system.cpu.icache.ReadReq.missRate::cpu.inst     0.001310                       # miss rate for ReadReq accesses (Ratio)
system.cpu.icache.ReadReq.missRate::total     0.001310                       # miss rate for ReadReq accesses (Ratio)
system.cpu.icache.ReadReq.avgMissLatency::cpu.inst        46000                       # average ReadReq miss latency ((Tick/Count))
system.cpu.icache.ReadReq.avgMissLatency::total        46000                       # average ReadReq miss latency ((Tick/Count))
system.cpu.icache.ReadReq.mshrHits::cpu.inst          139                       # number of ReadReq MSHR hits (Count)
system.cpu.icache.ReadReq.mshrHits::total          139                       # number of ReadReq MSHR hits (Count)
system.cpu.icache.ReadReq.mshrMisses::cpu.inst          481                       # number of ReadReq MSHR misses (Count)
system.cpu.icache.ReadReq.mshrMisses::total          481                       # number of ReadReq MSHR misses (Count)
system.cpu.icache.ReadReq.mshrMissLatency::cpu.inst     23321250                       # number of ReadReq MSHR miss ticks (Tick)
system.cpu.icache.ReadReq.mshrMissLatency::total     23321250                       # number of ReadReq MSHR miss ticks (Tick)
system.cpu.icache.ReadReq.mshrMissRate::cpu.inst     0.001017                       # mshr miss rate for ReadReq accesses (Ratio)
system.cpu.icache.ReadReq.mshrMissRate::total     0.001017                       # mshr miss rate for ReadReq accesses (Ratio)
system.cpu.icache.ReadReq.avgMshrMissLatency::cpu.inst 48484.927235                       # average ReadReq mshr miss latency ((Tick/Count))
system.cpu.icache.ReadReq.avgMshrMissLatency::total 48484.927235                       # average ReadReq mshr miss latency ((Tick/Count))
system.cpu.icache.power_state.pwrStateResidencyTicks::UNDEFINED    475693250                       # Cumulative time (in ticks) in various power states (Tick)
system.cpu.icache.tags.tagsInUse           406.333691                       # Average ticks per tags in use ((Tick/Count))
system.cpu.icache.tags.totalRefs               473039                       # Total number of references to valid blocks. (Count)
system.cpu.icache.tags.sampledRefs                480                       # Sample count of references to valid blocks. (Count)
system.cpu.icache.tags.avgRefs             985.497917                       # Average number of references to valid blocks. ((Count/Count))
system.cpu.icache.tags.warmupTick               68750                       # The tick when the warmup percentage was hit. (Tick)
system.cpu.icache.tags.occupancies::cpu.inst   406.333691                       # Average occupied blocks per tick, per requestor ((Count/Tick))
system.cpu.icache.tags.avgOccs::cpu.inst     0.396810                       # Average percentage of cache occupancy ((Ratio/Tick))
system.cpu.icache.tags.avgOccs::total        0.396810                       # Average percentage of cache occupancy ((Ratio/Tick))
system.cpu.icache.tags.occupanciesTaskId::1024          449                       # Occupied blocks per task id (Count)
system.cpu.icache.tags.ageTaskId_1024::0           39                       # Occupied blocks per task id, per block age (Count)
system.cpu.icache.tags.ageTaskId_1024::2          410                       # Occupied blocks per task id, per block age (Count)
system.cpu.icache.tags.ratioOccsTaskId::1024     0.438477                       # Ratio of occupied blocks and all blocks, per task id (Ratio)
system.cpu.icache.tags.tagAccesses             946838                       # Number of tag accesses (Count)
system.cpu.icache.tags.dataAccesses            946838                       # Number of data accesses (Count)
system.cpu.icache.tags.power_state.pwrStateResidencyTicks::UNDEFINED    475693250                       # Cumulative time (in ticks) in various power states (Tick)
system.cpu.iew.idleCycles                           0                       # Number of cycles IEW is idle (Cycle)
system.cpu.iew.squashCycles                     57231                       # Number of cycles IEW is squashing (Cycle)
system.cpu.iew.blockCycles                     276154                       # Number of cycles IEW is blocking (Cycle)
system.cpu.iew.unblockCycles                     2485                       # Number of cycles IEW is unblocking (Cycle)
system.cpu.iew.dispatchedInsts                6132580                       # Number of instructions dispatched to IQ (Count)
system.cpu.iew.dispSquashedInsts                 4728                       # Number of squashed instructions skipped by dispatch (Count)
system.cpu.iew.dispLoadInsts                   513213                       # Number of dispatched load instructions (Count)
system.cpu.iew.dispStoreInsts                  391249                       # Number of dispatched store instructions (Count)
system.cpu.iew.dispNonSpecInsts                     3                       # Number of dispatched non-speculative instructions (Count)
system.cpu.iew.iqFullEvents                      1124                       # Number of times the IQ has become full, causing a stall (Count)
system.cpu.iew.lsqFullEvents                     1333                       # Number of times the LSQ has become full, causing a stall (Count)
system.cpu.iew.memOrderViolationEvents             23                       # Number of memory order violations (Count)
system.cpu.iew.predictedTakenIncorrect          25215                       # Number of branches that were predicted taken incorrectly (Count)
system.cpu.iew.predictedNotTakenIncorrect        34652                       # Number of branches that were predicted not taken incorrectly (Count)
system.cpu.iew.branchMispredicts                59867                       # Number of branch mispredicts detected at execute (Count)
system.cpu.iew.instsToCommit                  5622012                       # Cumulative count of insts sent to commit (Count)
system.cpu.iew.writebackCount                 5596407                       # Cumulative count of insts written-back (Count)
system.cpu.iew.producerInst                   3903521                       # Number of instructions producing a value (Count)
system.cpu.iew.consumerInst                   5694562                       # Number of instructions consuming a value (Count)
system.cpu.iew.wbRate                        2.941183                       # Insts written-back per cycle ((Count/Cycle))
system.cpu.iew.wbFanout                      0.685482                       # Average fanout of values written-back ((Count/Count))
system.cpu.interrupts.clk_domain.clock           4000                       # Clock period in ticks (Tick)
system.cpu.itb_walker_cache.blockedCycles::no_mshrs            0                       # number of cycles access was blocked (Cycle)
system.cpu.itb_walker_cache.blockedCycles::no_targets            0                       # number of cycles access was blocked (Cycle)
system.cpu.itb_walker_cache.blockedCauses::no_mshrs            0                       # number of times access was blocked (Count)
system.cpu.itb_walker_cache.blockedCauses::no_targets            0                       # number of times access was blocked (Count)
system.cpu.itb_walker_cache.avgBlocked::no_mshrs          nan                       # average number of cycles each access was blocked ((Cycle/Count))
system.cpu.itb_walker_cache.avgBlocked::no_targets          nan                       # average number of cycles each access was blocked ((Cycle/Count))
system.cpu.itb_walker_cache.replacements            0                       # number of replacements (Count)
system.cpu.itb_walker_cache.power_state.pwrStateResidencyTicks::UNDEFINED    475693250                       # Cumulative time (in ticks) in various power states (Tick)
system.cpu.itb_walker_cache.tags.tagsInUse            0                       # Average ticks per tags in use ((Tick/Count))
system.cpu.itb_walker_cache.tags.totalRefs            0                       # Total number of references to valid blocks. (Count)
system.cpu.itb_walker_cache.tags.sampledRefs            0                       # Sample count of references to valid blocks. (Count)
system.cpu.itb_walker_cache.tags.avgRefs          nan                       # Average number of references to valid blocks. ((Count/Count))
system.cpu.itb_walker_cache.tags.warmupTick            0                       # The tick when the warmup percentage was hit. (Tick)
system.cpu.itb_walker_cache.tags.tagAccesses            0                       # Number of tag accesses (Count)
system.cpu.itb_walker_cache.tags.dataAccesses            0                       # Number of data accesses (Count)
system.cpu.itb_walker_cache.tags.power_state.pwrStateResidencyTicks::UNDEFINED    475693250                       # Cumulative time (in ticks) in various power states (Tick)
system.cpu.lsq0.forwLoads                       39238                       # Number of loads that had data forwarded from stores (Count)
system.cpu.lsq0.squashedLoads                  137254                       # Number of loads squashed (Count)
system.cpu.lsq0.ignoredResponses                   61                       # Number of memory responses ignored because the instruction is squashed (Count)
system.cpu.lsq0.memOrderViolation                  23                       # Number of memory ordering violations (Count)
system.cpu.lsq0.squashedStores                 111369                       # Number of stores squashed (Count)
system.cpu.lsq0.rescheduledLoads                 1817                       # Number of loads that were rescheduled (Count)
system.cpu.lsq0.blockedByCache                     20                       # Number of times an access to memory failed due to the cache being blocked (Count)
system.cpu.lsq0.loadToUse::samples             375959                       # Distribution of cycle latency between the first time a load is issued and its completion (Unspecified)
system.cpu.lsq0.loadToUse::mean              3.546772                       # Distribution of cycle latency between the first time a load is issued and its completion (Unspecified)
system.cpu.lsq0.loadToUse::stdev            11.120513                       # Distribution of cycle latency between the first time a load is issued and its completion (Unspecified)
system.cpu.lsq0.loadToUse::0-9                 374721     99.67%     99.67% # Distribution of cycle latency between the first time a load is issued and its completion (Unspecified)
system.cpu.lsq0.loadToUse::10-19                  131      0.03%     99.71% # Distribution of cycle latency between the first time a load is issued and its completion (Unspecified)
system.cpu.lsq0.loadToUse::20-29                   49      0.01%     99.72% # Distribution of cycle latency between the first time a load is issued and its completion (Unspecified)
system.cpu.lsq0.loadToUse::30-39                   67      0.02%     99.74% # Distribution of cycle latency between the first time a load is issued and its completion (Unspecified)
system.cpu.lsq0.loadToUse::40-49                  101      0.03%     99.76% # Distribution of cycle latency between the first time a load is issued and its completion (Unspecified)
system.cpu.lsq0.loadToUse::50-59                   91      0.02%     99.79% # Distribution of cycle latency between the first time a load is issued and its completion (Unspecified)
system.cpu.lsq0.loadToUse::60-69                   30      0.01%     99.80% # Distribution of cycle latency between the first time a load is issued and its completion (Unspecified)
system.cpu.lsq0.loadToUse::70-79                   38      0.01%     99.81% # Distribution of cycle latency between the first time a load is issued and its completion (Unspecified)
system.cpu.lsq0.loadToUse::80-89                   20      0.01%     99.81% # Distribution of cycle latency between the first time a load is issued and its completion (Unspecified)
system.cpu.lsq0.loadToUse::90-99                   28      0.01%     99.82% # Distribution of cycle latency between the first time a load is issued and its completion (Unspecified)
[...]
system.mem_ctrls.dram.bwWrite::total         25024530                       # Write bandwidth from this memory ((Byte/Second))
system.mem_ctrls.dram.bwTotal::writebacks     25024530                       # Total bandwidth to/from this memory ((Byte/Second))
system.mem_ctrls.dram.bwTotal::cpu.inst      64579432                       # Total bandwidth to/from this memory ((Byte/Second))
system.mem_ctrls.dram.bwTotal::cpu.data     173826305                       # Total bandwidth to/from this memory ((Byte/Second))
system.mem_ctrls.dram.bwTotal::total        263430267                       # Total bandwidth to/from this memory ((Byte/Second))
system.mem_ctrls.dram.readBursts                 1760                       # Number of DRAM read bursts (Count)
system.mem_ctrls.dram.writeBursts                 192                       # Number of DRAM write bursts (Count)
system.mem_ctrls.dram.perBankRdBursts::0          119                       # Per bank write bursts (Count)
system.mem_ctrls.dram.perBankRdBursts::1          128                       # Per bank write bursts (Count)
system.mem_ctrls.dram.perBankRdBursts::2          142                       # Per bank write bursts (Count)
system.mem_ctrls.dram.perBankRdBursts::3          189                       # Per bank write bursts (Count)
system.mem_ctrls.dram.perBankRdBursts::4          138                       # Per bank write bursts (Count)
system.mem_ctrls.dram.perBankRdBursts::5          125                       # Per bank write bursts (Count)
system.mem_ctrls.dram.perBankRdBursts::6           41                       # Per bank write bursts (Count)
system.mem_ctrls.dram.perBankRdBursts::7          135                       # Per bank write bursts (Count)
system.mem_ctrls.dram.perBankRdBursts::8          207                       # Per bank write bursts (Count)
system.mem_ctrls.dram.perBankRdBursts::9          152                       # Per bank write bursts (Count)
system.mem_ctrls.dram.perBankRdBursts::10          156                       # Per bank write bursts (Count)
system.mem_ctrls.dram.perBankRdBursts::11           66                       # Per bank write bursts (Count)
system.mem_ctrls.dram.perBankRdBursts::12           19                       # Per bank write bursts (Count)
system.mem_ctrls.dram.perBankRdBursts::13           70                       # Per bank write bursts (Count)
system.mem_ctrls.dram.perBankRdBursts::14           41                       # Per bank write bursts (Count)
system.mem_ctrls.dram.perBankRdBursts::15           32                       # Per bank write bursts (Count)
system.mem_ctrls.dram.perBankWrBursts::0            9                       # Per bank write bursts (Count)
system.mem_ctrls.dram.perBankWrBursts::1            9                       # Per bank write bursts (Count)
system.mem_ctrls.dram.perBankWrBursts::2            0                       # Per bank write bursts (Count)
system.mem_ctrls.dram.perBankWrBursts::3           12                       # Per bank write bursts (Count)
system.mem_ctrls.dram.perBankWrBursts::4            4                       # Per bank write bursts (Count)
system.mem_ctrls.dram.perBankWrBursts::5           38                       # Per bank write bursts (Count)
system.mem_ctrls.dram.perBankWrBursts::6           20                       # Per bank write bursts (Count)
system.mem_ctrls.dram.perBankWrBursts::7           13                       # Per bank write bursts (Count)
system.mem_ctrls.dram.perBankWrBursts::8           11                       # Per bank write bursts (Count)
system.mem_ctrls.dram.perBankWrBursts::9            3                       # Per bank write bursts (Count)
system.mem_ctrls.dram.perBankWrBursts::10            0                       # Per bank write bursts (Count)
system.mem_ctrls.dram.perBankWrBursts::11           28                       # Per bank write bursts (Count)
system.mem_ctrls.dram.perBankWrBursts::12            6                       # Per bank write bursts (Count)
system.mem_ctrls.dram.perBankWrBursts::13           39                       # Per bank write bursts (Count)
system.mem_ctrls.dram.perBankWrBursts::14            0                       # Per bank write bursts (Count)
system.mem_ctrls.dram.perBankWrBursts::15            0                       # Per bank write bursts (Count)
system.mem_ctrls.dram.totQLat                14214500                       # Total ticks spent queuing (Tick)
system.mem_ctrls.dram.totBusLat               8800000                       # Total ticks spent in databus transfers (Tick)
system.mem_ctrls.dram.totMemAccLat           47214500                       # Total ticks spent from burst creation until serviced by the DRAM (Tick)
system.mem_ctrls.dram.avgQLat                 8076.42                       # Average queueing delay per DRAM burst ((Tick/Count))
system.mem_ctrls.dram.avgBusLat               5000.00                       # Average bus latency per DRAM burst ((Tick/Count))
system.mem_ctrls.dram.avgMemAccLat           26826.42                       # Average memory access latency per DRAM burst ((Tick/Count))
system.mem_ctrls.dram.readRowHits                1505                       # Number of row buffer hits during reads (Count)
system.mem_ctrls.dram.writeRowHits                161                       # Number of row buffer hits during writes (Count)
system.mem_ctrls.dram.readRowHitRate            85.51                       # Row buffer hit rate for reads (Ratio)
system.mem_ctrls.dram.writeRowHitRate           83.85                       # Row buffer hit rate for writes (Ratio)
system.mem_ctrls.dram.bytesPerActivate::samples          281                       # Bytes accessed per row activation (Byte)
system.mem_ctrls.dram.bytesPerActivate::mean   440.711744                       # Bytes accessed per row activation (Byte)
system.mem_ctrls.dram.bytesPerActivate::gmean   295.455980                       # Bytes accessed per row activation (Byte)
system.mem_ctrls.dram.bytesPerActivate::stdev   326.434864                       # Bytes accessed per row activation (Byte)
system.mem_ctrls.dram.bytesPerActivate::0-127           59     21.00%     21.00% # Bytes accessed per row activation (Byte)
system.mem_ctrls.dram.bytesPerActivate::128-255           48     17.08%     38.08% # Bytes accessed per row activation (Byte)
system.mem_ctrls.dram.bytesPerActivate::256-383           33     11.74%     49.82% # Bytes accessed per row activation (Byte)
system.mem_ctrls.dram.bytesPerActivate::384-511           15      5.34%     55.16% # Bytes accessed per row activation (Byte)
system.mem_ctrls.dram.bytesPerActivate::512-639           26      9.25%     64.41% # Bytes accessed per row activation (Byte)
system.mem_ctrls.dram.bytesPerActivate::640-767           22      7.83%     72.24% # Bytes accessed per row activation (Byte)
system.mem_ctrls.dram.bytesPerActivate::768-895           44     15.66%     87.90% # Bytes accessed per row activation (Byte)
system.mem_ctrls.dram.bytesPerActivate::896-1023           18      6.41%     94.31% # Bytes accessed per row activation (Byte)
system.mem_ctrls.dram.bytesPerActivate::1024-1151           16      5.69%    100.00% # Bytes accessed per row activation (Byte)
system.mem_ctrls.dram.bytesPerActivate::total          281                       # Bytes accessed per row activation (Byte)
system.mem_ctrls.dram.bytesRead                112640                       # Total bytes read (Byte)
system.mem_ctrls.dram.bytesWritten              12288                       # Total bytes written (Byte)
system.mem_ctrls.dram.avgRdBW              236.791252                       # Average DRAM read bandwidth in MiBytes/s ((Byte/Second))
system.mem_ctrls.dram.avgWrBW               25.831773                       # Average DRAM write bandwidth in MiBytes/s ((Byte/Second))
system.mem_ctrls.dram.peakBW                 12800.00                       # Theoretical peak bandwidth in MiByte/s ((Byte/Second))
system.mem_ctrls.dram.busUtil                    2.05                       # Data bus utilization in percentage (Ratio)
system.mem_ctrls.dram.busUtilRead                1.85                       # Data bus utilization in percentage for reads (Ratio)
system.mem_ctrls.dram.busUtilWrite               0.20                       # Data bus utilization in percentage for writes (Ratio)
system.mem_ctrls.dram.pageHitRate               85.35                       # Row buffer hit rate, read and write combined (Ratio)
system.mem_ctrls.dram.power_state.pwrStateResidencyTicks::UNDEFINED    475693250                       # Cumulative time (in ticks) in various power states (Tick)
system.mem_ctrls.dram.rank0.actEnergy         1185240                       # Energy for activate commands per rank (pJ) (Joule)
system.mem_ctrls.dram.rank0.preEnergy          626175                       # Energy for precharge commands per rank (pJ) (Joule)
system.mem_ctrls.dram.rank0.readEnergy        7254240                       # Energy for read commands per rank (pJ) (Joule)
system.mem_ctrls.dram.rank0.writeEnergy        548100                       # Energy for write commands per rank (pJ) (Joule)
system.mem_ctrls.dram.rank0.refreshEnergy 37493040.000000                       # Energy for refresh commands per rank (pJ) (Joule)
system.mem_ctrls.dram.rank0.actBackEnergy    165657390                       # Energy for active background per rank (pJ) (Joule)
system.mem_ctrls.dram.rank0.preBackEnergy     43165440                       # Energy for precharge background per rank (pJ) (Joule)
system.mem_ctrls.dram.rank0.actPowerDownEnergy            0                       # Energy for active power-down per rank (pJ) (Joule)
system.mem_ctrls.dram.rank0.prePowerDownEnergy            0                       # Energy for precharge power-down per rank (pJ) (Joule)
system.mem_ctrls.dram.rank0.selfRefreshEnergy            0                       # Energy for self refresh per rank (pJ) (Joule)
system.mem_ctrls.dram.rank0.totalEnergy     255929625                       # Total energy per rank (pJ) (Joule)
system.mem_ctrls.dram.rank0.averagePower   538.013993                       # Core power per rank (mW) (Watt)
system.mem_ctrls.dram.rank0.totalIdleTime            0                       # Total Idle time Per DRAM Rank (Tick)
system.mem_ctrls.dram.rank0.pwrStateTime::IDLE    110827250                       # Time in different power states (Tick)
system.mem_ctrls.dram.rank0.pwrStateTime::REF     15860000                       # Time in different power states (Tick)
system.mem_ctrls.dram.rank0.pwrStateTime::SREF            0                       # Time in different power states (Tick)
system.mem_ctrls.dram.rank0.pwrStateTime::PRE_PDN            0                       # Time in different power states (Tick)
system.mem_ctrls.dram.rank0.pwrStateTime::ACT    349006000                       # Time in different power states (Tick)
system.mem_ctrls.dram.rank0.pwrStateTime::ACT_PDN            0                       # Time in different power states (Tick)
system.mem_ctrls.dram.rank1.actEnergy          849660                       # Energy for activate commands per rank (pJ) (Joule)
system.mem_ctrls.dram.rank1.preEnergy          440220                       # Energy for precharge commands per rank (pJ) (Joule)
system.mem_ctrls.dram.rank1.readEnergy        5305020                       # Energy for read commands per rank (pJ) (Joule)
system.mem_ctrls.dram.rank1.writeEnergy        454140                       # Energy for write commands per rank (pJ) (Joule)
system.mem_ctrls.dram.rank1.refreshEnergy 37493040.000000                       # Energy for refresh commands per rank (pJ) (Joule)
system.mem_ctrls.dram.rank1.actBackEnergy    134520000                       # Energy for active background per rank (pJ) (Joule)
system.mem_ctrls.dram.rank1.preBackEnergy     69386400                       # Energy for precharge background per rank (pJ) (Joule)
system.mem_ctrls.dram.rank1.actPowerDownEnergy            0                       # Energy for active power-down per rank (pJ) (Joule)
system.mem_ctrls.dram.rank1.prePowerDownEnergy            0                       # Energy for precharge power-down per rank (pJ) (Joule)
system.mem_ctrls.dram.rank1.selfRefreshEnergy            0                       # Energy for self refresh per rank (pJ) (Joule)
system.mem_ctrls.dram.rank1.totalEnergy     248448480                       # Total energy per rank (pJ) (Joule)
system.mem_ctrls.dram.rank1.averagePower   522.287167                       # Core power per rank (mW) (Watt)
system.mem_ctrls.dram.rank1.totalIdleTime            0                       # Total Idle time Per DRAM Rank (Tick)
system.mem_ctrls.dram.rank1.pwrStateTime::IDLE    179244000                       # Time in different power states (Tick)
system.mem_ctrls.dram.rank1.pwrStateTime::REF     15860000                       # Time in different power states (Tick)
system.mem_ctrls.dram.rank1.pwrStateTime::SREF            0                       # Time in different power states (Tick)
system.mem_ctrls.dram.rank1.pwrStateTime::PRE_PDN            0                       # Time in different power states (Tick)
system.mem_ctrls.dram.rank1.pwrStateTime::ACT    280589250                       # Time in different power states (Tick)
system.mem_ctrls.dram.rank1.pwrStateTime::ACT_PDN            0                       # Time in different power states (Tick)
system.mem_ctrls.power_state.pwrStateResidencyTicks::UNDEFINED    475693250                       # Cumulative time (in ticks) in various power states (Tick)
system.membus.transDist::ReadResp                1139                       # Transaction distribution (Count)
system.membus.transDist::WritebackDirty           186                       # Transaction distribution (Count)
system.membus.transDist::WritebackClean            31                       # Transaction distribution (Count)
system.membus.transDist::CleanEvict                82                       # Transaction distribution (Count)
system.membus.transDist::ReadExReq                633                       # Transaction distribution (Count)
system.membus.transDist::ReadExResp               633                       # Transaction distribution (Count)
system.membus.transDist::ReadCleanReq             481                       # Transaction distribution (Count)
system.membus.transDist::ReadSharedReq            659                       # Transaction distribution (Count)
system.membus.pktCount_system.cpu.icache.mem_side_port::system.mem_ctrls.port          992                       # Packet count per connected requestor and responder (Count)
system.membus.pktCount_system.cpu.icache.mem_side_port::total          992                       # Packet count per connected requestor and responder (Count)
system.membus.pktCount_system.cpu.dcache.mem_side_port::system.mem_ctrls.port         2852                       # Packet count per connected requestor and responder (Count)
system.membus.pktCount_system.cpu.dcache.mem_side_port::total         2852                       # Packet count per connected requestor and responder (Count)
system.membus.pktCount::total                    3844                       # Packet count per connected requestor and responder (Count)
system.membus.pktSize_system.cpu.icache.mem_side_port::system.mem_ctrls.port        32704                       # Cumulative packet size per connected requestor and responder (Byte)
system.membus.pktSize_system.cpu.icache.mem_side_port::total        32704                       # Cumulative packet size per connected requestor and responder (Byte)
system.membus.pktSize_system.cpu.dcache.mem_side_port::system.mem_ctrls.port        94592                       # Cumulative packet size per connected requestor and responder (Byte)
system.membus.pktSize_system.cpu.dcache.mem_side_port::total        94592                       # Cumulative packet size per connected requestor and responder (Byte)
system.membus.pktSize::total                   127296                       # Cumulative packet size per connected requestor and responder (Byte)
system.membus.snoops                                0                       # Total snoops (Count)
system.membus.snoopTraffic                          0                       # Total snoop traffic (Byte)
system.membus.snoopFanout::samples               1773                       # Request fanout histogram (Count)
system.membus.snoopFanout::mean                     0                       # Request fanout histogram (Count)
system.membus.snoopFanout::stdev                    0                       # Request fanout histogram (Count)
system.membus.snoopFanout::underflows               0      0.00%      0.00% # Request fanout histogram (Count)
system.membus.snoopFanout::0                     1773    100.00%    100.00% # Request fanout histogram (Count)
system.membus.snoopFanout::1                        0      0.00%    100.00% # Request fanout histogram (Count)
system.membus.snoopFanout::2                        0      0.00%    100.00% # Request fanout histogram (Count)
system.membus.snoopFanout::3                        0      0.00%    100.00% # Request fanout histogram (Count)
system.membus.snoopFanout::4                        0      0.00%    100.00% # Request fanout histogram (Count)
system.membus.snoopFanout::overflows                0      0.00%    100.00% # Request fanout histogram (Count)
system.membus.snoopFanout::min_value                0                       # Request fanout histogram (Count)
system.membus.snoopFanout::max_value                0                       # Request fanout histogram (Count)
system.membus.snoopFanout::total                 1773                       # Request fanout histogram (Count)
system.membus.power_state.pwrStateResidencyTicks::UNDEFINED    475693250                       # Cumulative time (in ticks) in various power states (Tick)
system.membus.reqLayer2.occupancy              735000                       # Layer occupancy (ticks) (Tick)
system.membus.reqLayer2.utilization               0.0                       # Layer utilization (Ratio)
system.membus.respLayer1.occupancy             600000                       # Layer occupancy (ticks) (Tick)
system.membus.respLayer1.utilization              0.0                       # Layer utilization (Ratio)
system.membus.respLayer2.occupancy            1615000                       # Layer occupancy (ticks) (Tick)
system.membus.respLayer2.utilization              0.0                       # Layer utilization (Ratio)
system.membus.snoop_filter.totRequests           2072                       # Total number of requests made to the snoop filter. (Count)
system.membus.snoop_filter.hitSingleRequests          299                       # Number of requests hitting in the snoop filter with a single holder of the requested data. (Count)
system.membus.snoop_filter.hitMultiRequests            0                       # Number of requests hitting in the snoop filter with multiple (>1) holders of the requested data. (Count)
system.membus.snoop_filter.totSnoops                0                       # Total number of snoops made to the snoop filter. (Count)
system.membus.snoop_filter.hitSingleSnoops            0                       # Number of snoops hitting in the snoop filter with a single holder of the requested data. (Count)
system.membus.snoop_filter.hitMultiSnoops            0                       # Number of snoops hitting in the snoop filter with multiple (>1) holders of the requested data. (Count)
system.voltage_domain.voltage                       1                       # Voltage in Volts (Volt)
system.workload.inst.arm                            0                       # number of arm instructions executed (Count)
system.workload.inst.quiesce                        0                       # number of quiesce instructions executed (Count)

---------- End Simulation Statistics   ----------
