
---------- Begin Simulation Statistics ----------
simSeconds                                   0.003070                       # Number of seconds simulated (Second)
simTicks                                   3069768000                       # Number of ticks simulated (Tick)
finalTick                                  3069768000                       # Number of ticks from beginning of simulation (restored from checkpoints and never reset) (Tick)
simFreq                                  1000000000000                       # The number of ticks per simulated second ((Tick/Second))
hostSeconds                                     34.17                       # Real time elapsed on the host (Second)
hostTickRate                                 89842836                       # The number of ticks simulated per host second (ticks/s) ((Tick/Second))
hostMemory                                     651760                       # Number of bytes of host memory used (Byte)
simInsts                                      2512309                       # Number of instructions simulated (Count)
simOps                                        4197990                       # Number of ops (including micro ops) simulated (Count)
hostInstRate                                    73527                       # Simulator instruction rate (inst/s) ((Count/Second))
hostOpRate                                     122861                       # Simulator op (including micro ops) rate (op/s) ((Count/Second))
system.clk_domain.clock                          1000                       # Clock period in ticks (Tick)
system.cpu.numCycles                          3069769                       # Number of cpu cycles simulated (Cycle)
system.cpu.numWorkItemsStarted                      0                       # Number of work items this cpu started (Count)
system.cpu.numWorkItemsCompleted                    0                       # Number of work items this cpu completed (Count)
system.cpu.instsAdded                         7702946                       # Number of instructions added to the IQ (excludes non-spec) (Count)
system.cpu.nonSpecInstsAdded                        7                       # Number of non-speculative instructions added to the IQ (Count)
system.cpu.instsIssued                        4657963                       # Number of instructions issued (Count)
system.cpu.squashedInstsIssued                1394615                       # Number of squashed instructions issued (Count)
system.cpu.squashedInstsExamined              3504956                       # Number of squashed instructions iterated over during squash; mainly for profiling (Count)
system.cpu.squashedOperandsExamined           7685867                       # Number of squashed operands that are examined and possibly removed from graph (Count)
system.cpu.squashedNonSpecRemoved                   7                       # Number of squashed non-spec instructions that were removed (Count)
system.cpu.numIssuedDist::samples             3060283                       # Number of insts issued each cycle (Count)
system.cpu.numIssuedDist::mean               1.522069                       # Number of insts issued each cycle (Count)
system.cpu.numIssuedDist::stdev              0.852186                       # Number of insts issued each cycle (Count)
system.cpu.numIssuedDist::underflows                0      0.00%      0.00% # Number of insts issued each cycle (Count)
system.cpu.numIssuedDist::0                    729430     23.84%     23.84% # Number of insts issued each cycle (Count)
system.cpu.numIssuedDist::1                      3743      0.12%     23.96% # Number of insts issued each cycle (Count)
system.cpu.numIssuedDist::2                   2327110     76.04%    100.00% # Number of insts issued each cycle (Count)
system.cpu.numIssuedDist::overflows                 0      0.00%    100.00% # Number of insts issued each cycle (Count)
system.cpu.numIssuedDist::min_value                 0                       # Number of insts issued each cycle (Count)
system.cpu.numIssuedDist::max_value                 2                       # Number of insts issued each cycle (Count)
system.cpu.numIssuedDist::total               3060283                       # Number of insts issued each cycle (Count)
system.cpu.statFuBusy::No_OpClass                   0                       # attempts to use FU when none available (Count)
system.cpu.statFuBusy::IntAlu                       0                       # attempts to use FU when none available (Count)
system.cpu.statFuBusy::IntMult                      0                       # attempts to use FU when none available (Count)
system.cpu.statFuBusy::IntDiv                       0                       # attempts to use FU when none available (Count)
system.cpu.statFuBusy::FloatAdd                     0                       # attempts to use FU when none available (Count)
system.cpu.statFuBusy::FloatCmp                     0                       # attempts to use FU when none available (Count)
system.cpu.statFuBusy::FloatCvt                     0                       # attempts to use FU when none available (Count)
system.cpu.statFuBusy::FloatMult                    0                       # attempts to use FU when none available (Count)
system.cpu.statFuBusy::FloatMultAcc                 0                       # attempts to use FU when none available (Count)
system.cpu.statFuBusy::FloatDiv                     0                       # attempts to use FU when none available (Count)
system.cpu.statFuBusy::FloatMisc                    0                       # attempts to use FU when none available (Count)
system.cpu.statFuBusy::FloatSqrt                    0                       # attempts to use FU when none available (Count)
system.cpu.statFuBusy::SimdAdd                      0                       # attempts to use FU when none available (Count)
system.cpu.statFuBusy::SimdAddAcc                   0                       # attempts to use FU when none available (Count)
system.cpu.statFuBusy::SimdAlu                      0                       # attempts to use FU when none available (Count)
system.cpu.statFuBusy::SimdCmp                      0                       # attempts to use FU when none available (Count)
system.cpu.statFuBusy::SimdCvt                      0                       # attempts to use FU when none available (Count)
system.cpu.statFuBusy::SimdMisc                     0                       # attempts to use FU when none available (Count)
system.cpu.statFuBusy::SimdMult                     0                       # attempts to use FU when none available (Count)
system.cpu.statFuBusy::SimdMultAcc                  0                       # attempts to use FU when none available (Count)
system.cpu.statFuBusy::SimdShift                    0                       # attempts to use FU when none available (Count)
system.cpu.statFuBusy::SimdShiftAcc                 0                       # attempts to use FU when none available (Count)
system.cpu.statFuBusy::SimdDiv                      0                       # attempts to use FU when none available (Count)
system.cpu.statFuBusy::SimdSqrt                     0                       # attempts to use FU when none available (Count)
system.cpu.statFuBusy::SimdFloatAdd                 0                       # attempts to use FU when none available (Count)
system.cpu.statFuBusy::SimdFloatAlu                 0                       # attempts to use FU when none available (Count)
system.cpu.statFuBusy::SimdFloatCmp                 0                       # attempts to use FU when none available (Count)
system.cpu.statFuBusy::SimdFloatCvt                 0                       # attempts to use FU when none available (Count)
system.cpu.statFuBusy::SimdFloatDiv                 0                       # attempts to use FU when none available (Count)
system.cpu.statFuBusy::SimdFloatMisc                0                       # attempts to use FU when none available (Count)
system.cpu.statFuBusy::SimdFloatMult                0                       # attempts to use FU when none available (Count)
system.cpu.statFuBusy::SimdFloatMultAcc             0                       # attempts to use FU when none available (Count)
system.cpu.statFuBusy::SimdFloatSqrt                0                       # attempts to use FU when none available (Count)
system.cpu.statFuBusy::SimdReduceAdd                0                       # attempts to use FU when none available (Count)
system.cpu.statFuBusy::SimdReduceAlu                0                       # attempts to use FU when none available (Count)
system.cpu.statFuBusy::SimdReduceCmp                0                       # attempts to use FU when none available (Count)
system.cpu.statFuBusy::SimdFloatReduceAdd            0                       # attempts to use FU when none available (Count)
system.cpu.statFuBusy::SimdFloatReduceCmp            0                       # attempts to use FU when none available (Count)
system.cpu.statFuBusy::SimdAes                      0                       # attempts to use FU when none available (Count)
system.cpu.statFuBusy::SimdAesMix                   0                       # attempts to use FU when none available (Count)
system.cpu.statFuBusy::SimdSha1Hash                 0                       # attempts to use FU when none available (Count)
system.cpu.statFuBusy::SimdSha1Hash2                0                       # attempts to use FU when none available (Count)
system.cpu.statFuBusy::SimdSha256Hash               0                       # attempts to use FU when none available (Count)
system.cpu.statFuBusy::SimdSha256Hash2              0                       # attempts to use FU when none available (Count)
system.cpu.statFuBusy::SimdShaSigma2                0                       # attempts to use FU when none available (Count)
system.cpu.statFuBusy::SimdShaSigma3                0                       # attempts to use FU when none available (Count)
system.cpu.statFuBusy::SimdPredAlu                  0                       # attempts to use FU when none available (Count)
system.cpu.statFuBusy::MemRead                      0                       # attempts to use FU when none available (Count)
system.cpu.statFuBusy::MemWrite                     0                       # attempts to use FU when none available (Count)
system.cpu.statFuBusy::FloatMemRead                 0                       # attempts to use FU when none available (Count)
system.cpu.statFuBusy::FloatMemWrite                0                       # attempts to use FU when none available (Count)
system.cpu.statFuBusy::IprAccess                    0                       # attempts to use FU when none available (Count)
system.cpu.statFuBusy::InstPrefetch                 0                       # attempts to use FU when none available (Count)
system.cpu.statIssuedInstType_0::No_OpClass        29608      0.64%      0.64% # Number of instructions issued per FU type, per thread (Count)
system.cpu.statIssuedInstType_0::IntAlu       3914046     84.03%     84.66% # Number of instructions issued per FU type, per thread (Count)
system.cpu.statIssuedInstType_0::IntMult            5      0.00%     84.66% # Number of instructions issued per FU type, per thread (Count)
system.cpu.statIssuedInstType_0::IntDiv            21      0.00%     84.67% # Number of instructions issued per FU type, per thread (Count)
system.cpu.statIssuedInstType_0::FloatAdd          136      0.00%     84.67% # Number of instructions issued per FU type, per thread (Count)
system.cpu.statIssuedInstType_0::FloatCmp            0      0.00%     84.67% # Number of instructions issued per FU type, per thread (Count)
system.cpu.statIssuedInstType_0::FloatCvt            0      0.00%     84.67% # Number of instructions issued per FU type, per thread (Count)
system.cpu.statIssuedInstType_0::FloatMult            0      0.00%     84.67% # Number of instructions issued per FU type, per thread (Count)
system.cpu.statIssuedInstType_0::FloatMultAcc            0      0.00%     84.67% # Number of instructions issued per FU type, per thread (Count)
system.cpu.statIssuedInstType_0::FloatDiv            0      0.00%     84.67% # Number of instructions issued per FU type, per thread (Count)
system.cpu.statIssuedInstType_0::FloatMisc            0      0.00%     84.67% # Number of instructions issued per FU type, per thread (Count)
system.cpu.statIssuedInstType_0::FloatSqrt            0      0.00%     84.67% # Number of instructions issued per FU type, per thread (Count)
system.cpu.statIssuedInstType_0::SimdAdd            0      0.00%     84.67% # Number of instructions issued per FU type, per thread (Count)
system.cpu.statIssuedInstType_0::SimdAddAcc            0      0.00%     84.67% # Number of instructions issued per FU type, per thread (Count)
system.cpu.statIssuedInstType_0::SimdAlu          170      0.00%     84.67% # Number of instructions issued per FU type, per thread (Count)
system.cpu.statIssuedInstType_0::SimdCmp            0      0.00%     84.67% # Number of instructions issued per FU type, per thread (Count)
system.cpu.statIssuedInstType_0::SimdCvt           47      0.00%     84.67% # Number of instructions issued per FU type, per thread (Count)
system.cpu.statIssuedInstType_0::SimdMisc          216      0.00%     84.68% # Number of instructions issued per FU type, per thread (Count)
system.cpu.statIssuedInstType_0::SimdMult            0      0.00%     84.68% # Number of instructions issued per FU type, per thread (Count)
system.cpu.statIssuedInstType_0::SimdMultAcc            0      0.00%     84.68% # Number of instructions issued per FU type, per thread (Count)
system.cpu.statIssuedInstType_0::SimdShift            0      0.00%     84.68% # Number of instructions issued per FU type, per thread (Count)
system.cpu.statIssuedInstType_0::SimdShiftAcc            0      0.00%     84.68% # Number of instructions issued per FU type, per thread (Count)
system.cpu.statIssuedInstType_0::SimdDiv            0      0.00%     84.68% # Number of instructions issued per FU type, per thread (Count)
system.cpu.statIssuedInstType_0::SimdSqrt            0      0.00%     84.68% # Number of instructions issued per FU type, per thread (Count)
system.cpu.statIssuedInstType_0::SimdFloatAdd            0      0.00%     84.68% # Number of instructions issued per FU type, per thread (Count)
system.cpu.statIssuedInstType_0::SimdFloatAlu            0      0.00%     84.68% # Number of instructions issued per FU type, per thread (Count)
system.cpu.statIssuedInstType_0::SimdFloatCmp            0      0.00%     84.68% # Number of instructions issued per FU type, per thread (Count)
system.cpu.statIssuedInstType_0::SimdFloatCvt            0      0.00%     84.68% # Number of instructions issued per FU type, per thread (Count)
system.cpu.statIssuedInstType_0::SimdFloatDiv            0      0.00%     84.68% # Number of instructions issued per FU type, per thread (Count)
system.cpu.statIssuedInstType_0::SimdFloatMisc            0      0.00%     84.68% # Number of instructions issued per FU type, per thread (Count)
system.cpu.statIssuedInstType_0::SimdFloatMult            0      0.00%     84.68% # Number of instructions issued per FU type, per thread (Count)
system.cpu.statIssuedInstType_0::SimdFloatMultAcc            0      0.00%     84.68% # Number of instructions issued per FU type, per thread (Count)
system.cpu.statIssuedInstType_0::SimdFloatSqrt            0      0.00%     84.68% # Number of instructions issued per FU type, per thread (Count)
system.cpu.statIssuedInstType_0::SimdReduceAdd            0      0.00%     84.68% # Number of instructions issued per FU type, per thread (Count)
system.cpu.statIssuedInstType_0::SimdReduceAlu            0      0.00%     84.68% # Number of instructions issued per FU type, per thread (Count)
system.cpu.statIssuedInstType_0::SimdReduceCmp            0      0.00%     84.68% # Number of instructions issued per FU type, per thread (Count)
system.cpu.statIssuedInstType_0::SimdFloatReduceAdd            0      0.00%     84.68% # Number of instructions issued per FU type, per thread (Count)
system.cpu.statIssuedInstType_0::SimdFloatReduceCmp            0      0.00%     84.68% # Number of instructions issued per FU type, per thread (Count)
system.cpu.statIssuedInstType_0::SimdAes            0      0.00%     84.68% # Number of instructions issued per FU type, per thread (Count)
system.cpu.statIssuedInstType_0::SimdAesMix            0      0.00%     84.68% # Number of instructions issued per FU type, per thread (Count)
system.cpu.statIssuedInstType_0::SimdSha1Hash            0      0.00%     84.68% # Number of instructions issued per FU type, per thread (Count)
system.cpu.statIssuedInstType_0::SimdSha1Hash2            0      0.00%     84.68% # Number of instructions issued per FU type, per thread (Count)
system.cpu.statIssuedInstType_0::SimdSha256Hash            0      0.00%     84.68% # Number of instructions issued per FU type, per thread (Count)
system.cpu.statIssuedInstType_0::SimdSha256Hash2            0      0.00%     84.68% # Number of instructions issued per FU type, per thread (Count)
system.cpu.statIssuedInstType_0::SimdShaSigma2            0      0.00%     84.68% # Number of instructions issued per FU type, per thread (Count)
system.cpu.statIssuedInstType_0::SimdShaSigma3            0      0.00%     84.68% # Number of instructions issued per FU type, per thread (Count)
system.cpu.statIssuedInstType_0::SimdPredAlu            0      0.00%     84.68% # Number of instructions issued per FU type, per thread (Count)
system.cpu.statIssuedInstType_0::MemRead       333658      7.16%     91.84% # Number of instructions issued per FU type, per thread (Count)
system.cpu.statIssuedInstType_0::MemWrite       279302      6.00%     97.84% # Number of instructions issued per FU type, per thread (Count)
system.cpu.statIssuedInstType_0::FloatMemRead        50799      1.09%     98.93% # Number of instructions issued per FU type, per thread (Count)
system.cpu.statIssuedInstType_0::FloatMemWrite        49955      1.07%    100.00% # Number of instructions issued per FU type, per thread (Count)
system.cpu.statIssuedInstType_0::IprAccess            0      0.00%    100.00% # Number of instructions issued per FU type, per thread (Count)
system.cpu.statIssuedInstType_0::InstPrefetch            0      0.00%    100.00% # Number of instructions issued per FU type, per thread (Count)
system.cpu.statIssuedInstType_0::total        4657963                       # Number of instructions issued per FU type, per thread (Count)
system.cpu.issueRate                         1.517366                       # Inst issue rate ((Count/Cycle))
system.cpu.fuBusy                                   0                       # FU busy when requested (Count)
system.cpu.fuBusyRate                               0                       # FU busy rate (busy events/executed inst) ((Count/Count))
system.cpu.intInstQueueReads                 13567750                       # Number of integer instruction queue reads (Count)
system.cpu.intInstQueueWrites                11058039                       # Number of integer instruction queue writes (Count)
system.cpu.intInstQueueWakeupAccesses         4550684                       # Number of integer instruction queue wakeup accesses (Count)
system.cpu.fpInstQueueReads                    203073                       # Number of floating instruction queue reads (Count)
system.cpu.fpInstQueueWrites                   149885                       # Number of floating instruction queue writes (Count)
system.cpu.fpInstQueueWakeupAccesses            99912                       # Number of floating instruction queue wakeup accesses (Count)
system.cpu.vecInstQueueReads                        0                       # Number of vector instruction queue reads (Count)
system.cpu.vecInstQueueWrites                       0                       # Number of vector instruction queue writes (Count)
system.cpu.vecInstQueueWakeupAccesses               0                       # Number of vector instruction queue wakeup accesses (Count)
system.cpu.intAluAccesses                     4526892                       # Number of integer alu accesses (Count)
system.cpu.fpAluAccesses                       101463                       # Number of floating point alu accesses (Count)
system.cpu.vecAluAccesses                           0                       # Number of vector alu accesses (Count)
system.cpu.numInsts                           4654430                       # Number of executed instructions (Count)
system.cpu.numLoadInsts                        381821                       # Number of load instructions executed (Count)
system.cpu.numSquashedInsts                      3532                       # Number of squashed instructions skipped in execute (Count)
system.cpu.numSwp                                   0                       # Number of swp insts executed (Count)
system.cpu.numNop                                   0                       # Number of nop insts executed (Count)
system.cpu.numRefs                             710590                       # Number of memory reference insts executed (Count)
system.cpu.numBranches                         517921                       # Number of branches executed (Count)
system.cpu.numStoreInsts                       328769                       # Number of stores executed (Count)
system.cpu.numRate                           1.516215                       # Inst execution rate ((Count/Cycle))
system.cpu.timesIdled                             285                       # Number of times that the entire CPU went into an idle state and unscheduled itself (Count)
system.cpu.idleCycles                            9486                       # Total number of cycles that the CPU has spent unscheduled due to idling (Cycle)
system.cpu.committedInsts                     2512309                       # Number of Instructions Simulated (Count)
system.cpu.committedOps                       4197990                       # Number of Ops (including micro ops) Simulated (Count)
system.cpu.cpi                               1.221891                       # CPI: Cycles Per Instruction ((Cycle/Count))
system.cpu.totalCpi                          1.221891                       # CPI: Total CPI of All Threads ((Cycle/Count))
system.cpu.ipc                               0.818403                       # IPC: Instructions Per Cycle ((Count/Cycle))
system.cpu.totalIpc                          0.818403                       # IPC: Total IPC of All Threads ((Count/Cycle))
system.cpu.intRegfileReads                    6703050                       # Number of integer regfile reads (Count)
system.cpu.intRegfileWrites                   3720549                       # Number of integer regfile writes (Count)
system.cpu.fpRegfileReads                       50724                       # Number of floating regfile reads (Count)
system.cpu.fpRegfileWrites                      50604                       # Number of floating regfile writes (Count)
system.cpu.ccRegfileReads                     2574948                       # number of cc regfile reads (Count)
system.cpu.ccRegfileWrites                    2014186                       # number of cc regfile writes (Count)
system.cpu.miscRegfileReads                   1791509                       # number of misc regfile reads (Count)
system.cpu.MemDepUnit__0.insertedLoads         663943                       # Number of loads inserted to the mem dependence unit. (Count)
system.cpu.MemDepUnit__0.insertedStores        457339                       # Number of stores inserted to the mem dependence unit. (Count)
system.cpu.MemDepUnit__0.conflictingLoads        93610                       # Number of conflicting loads. (Count)
system.cpu.MemDepUnit__0.conflictingStores        55012                       # Number of conflicting stores. (Count)
system.cpu.MemDepUnit__1.insertedLoads              0                       # Number of loads inserted to the mem dependence unit. (Count)
system.cpu.MemDepUnit__1.insertedStores             0                       # Number of stores inserted to the mem dependence unit. (Count)
system.cpu.MemDepUnit__1.conflictingLoads            0                       # Number of conflicting loads. (Count)
system.cpu.MemDepUnit__1.conflictingStores            0                       # Number of conflicting stores. (Count)
system.cpu.MemDepUnit__2.insertedLoads              0                       # Number of loads inserted to the mem dependence unit. (Count)
system.cpu.MemDepUnit__2.insertedStores             0                       # Number of stores inserted to the mem dependence unit. (Count)
system.cpu.MemDepUnit__2.conflictingLoads            0                       # Number of conflicting loads. (Count)
system.cpu.MemDepUnit__2.conflictingStores            0                       # Number of conflicting stores. (Count)
system.cpu.MemDepUnit__3.insertedLoads              0                       # Number of loads inserted to the mem dependence unit. (Count)
system.cpu.MemDepUnit__3.insertedStores             0                       # Number of stores inserted to the mem dependence unit. (Count)
system.cpu.MemDepUnit__3.conflictingLoads            0                       # Number of conflicting loads. (Count)
system.cpu.MemDepUnit__3.conflictingStores            0                       # Number of conflicting stores. (Count)
system.cpu.branchPred.lookups                 1282715                       # Number of BP lookups (Count)
system.cpu.branchPred.condPredicted           1090486                       # Number of conditional branches predicted (Count)
system.cpu.branchPred.condIncorrect             58073                       # Number of conditional branches incorrect (Count)
system.cpu.branchPred.BTBLookups               401181                       # Number of BTB lookups (Count)
system.cpu.branchPred.BTBHits                  399714                       # Number of BTB hits (Count)
system.cpu.branchPred.BTBHitRatio            0.996343                       # BTB Hit Ratio (Ratio)
system.cpu.branchPred.RASUsed                   10162                       # Number of times the RAS was used to get a target. (Count)
system.cpu.branchPred.RASIncorrect                  3                       # Number of incorrect RAS predictions. (Count)
system.cpu.branchPred.indirectLookups             443                       # Number of indirect predictor lookups. (Count)
system.cpu.branchPred.indirectHits                 28                       # Number of indirect target hits. (Count)
system.cpu.branchPred.indirectMisses              415                       # Number of indirect misses. (Count)
system.cpu.branchPred.indirectMispredicted           88                       # Number of mispredicted indirect branches. (Count)
system.cpu.commit.commitSquashedInsts         3504747                       # The number of squashed insts skipped by commit (Count)
system.cpu.commit.branchMispredicts             55602                       # The number of times a branch was mispredicted (Count)
system.cpu.commit.numCommittedDist::samples      2593976                       # Number of insts commited each cycle (Count)
system.cpu.commit.numCommittedDist::mean     1.618361                       # Number of insts commited each cycle (Count)
system.cpu.commit.numCommittedDist::stdev     1.378349                       # Number of insts commited each cycle (Count)
system.cpu.commit.numCommittedDist::underflows            0      0.00%      0.00% # Number of insts commited each cycle (Count)
system.cpu.commit.numCommittedDist::0          656092     25.29%     25.29% # Number of insts commited each cycle (Count)
system.cpu.commit.numCommittedDist::1          495535     19.10%     44.40% # Number of insts commited each cycle (Count)
system.cpu.commit.numCommittedDist::2         1000971     38.59%     82.98% # Number of insts commited each cycle (Count)
system.cpu.commit.numCommittedDist::3          249144      9.60%     92.59% # Number of insts commited each cycle (Count)
system.cpu.commit.numCommittedDist::4           93841      3.62%     96.21% # Number of insts commited each cycle (Count)
system.cpu.commit.numCommittedDist::5           43183      1.66%     97.87% # Number of insts commited each cycle (Count)
system.cpu.commit.numCommittedDist::6           32002      1.23%     99.11% # Number of insts commited each cycle (Count)
system.cpu.commit.numCommittedDist::7           15874      0.61%     99.72% # Number of insts commited each cycle (Count)
system.cpu.commit.numCommittedDist::8            7334      0.28%    100.00% # Number of insts commited each cycle (Count)
system.cpu.commit.numCommittedDist::overflows            0      0.00%    100.00% # Number of insts commited each cycle (Count)
system.cpu.commit.numCommittedDist::min_value            0                       # Number of insts commited each cycle (Count)
system.cpu.commit.numCommittedDist::max_value            8                       # Number of insts commited each cycle (Count)
system.cpu.commit.numCommittedDist::total      2593976                       # Number of insts commited each cycle (Count)
system.cpu.commit.instsCommitted              2512309                       # Number of instructions committed (Count)
system.cpu.commit.opsCommitted                4197990                       # Number of ops (including micro ops) committed (Count)
system.cpu.commit.memRefs                      655839                       # Number of memory references committed (Count)
system.cpu.commit.loads                        375959                       # Number of loads committed (Count)
system.cpu.commit.amos                              0                       # Number of atomic instructions committed (Count)
system.cpu.commit.membars                           0                       # Number of memory barriers committed (Count)
system.cpu.commit.branches                     512172                       # Number of branches committed (Count)
system.cpu.commit.vectorInstructions                0                       # Number of committed Vector instructions. (Count)
system.cpu.commit.floating                      99585                       # Number of committed floating point instructions. (Count)
system.cpu.commit.integer                     4164486                       # Number of committed integer instructions. (Count)
system.cpu.commit.functionCalls                  8334                       # Number of function calls committed. (Count)
system.cpu.commit.committedInstType_0::No_OpClass        28855      0.69%      0.69% # Class of committed instruction (Count)
system.cpu.commit.committedInstType_0::IntAlu      3512780     83.68%     84.37% # Class of committed instruction (Count)
system.cpu.commit.committedInstType_0::IntMult            5      0.00%     84.37% # Class of committed instruction (Count)
system.cpu.commit.committedInstType_0::IntDiv           21      0.00%     84.37% # Class of committed instruction (Count)
system.cpu.commit.committedInstType_0::FloatAdd          135      0.00%     84.37% # Class of committed instruction (Count)
system.cpu.commit.committedInstType_0::FloatCmp            0      0.00%     84.37% # Class of committed instruction (Count)
system.cpu.commit.committedInstType_0::FloatCvt            0      0.00%     84.37% # Class of committed instruction (Count)
system.cpu.commit.committedInstType_0::FloatMult            0      0.00%     84.37% # Class of committed instruction (Count)
system.cpu.commit.committedInstType_0::FloatMultAcc            0      0.00%     84.37% # Class of committed instruction (Count)
system.cpu.commit.committedInstType_0::FloatDiv            0      0.00%     84.37% # Class of committed instruction (Count)
system.cpu.commit.committedInstType_0::FloatMisc            0      0.00%     84.37% # Class of committed instruction (Count)
system.cpu.commit.committedInstType_0::FloatSqrt            0      0.00%     84.37% # Class of committed instruction (Count)
system.cpu.commit.committedInstType_0::SimdAdd            0      0.00%     84.37% # Class of committed instruction (Count)
system.cpu.commit.committedInstType_0::SimdAddAcc            0      0.00%     84.37% # Class of committed instruction (Count)
system.cpu.commit.committedInstType_0::SimdAlu           94      0.00%     84.37% # Class of committed instruction (Count)
system.cpu.commit.committedInstType_0::SimdCmp            0      0.00%     84.37% # Class of committed instruction (Count)
system.cpu.commit.committedInstType_0::SimdCvt           46      0.00%     84.37% # Class of committed instruction (Count)
system.cpu.commit.committedInstType_0::SimdMisc          215      0.01%     84.38% # Class of committed instruction (Count)
system.cpu.commit.committedInstType_0::SimdMult            0      0.00%     84.38% # Class of committed instruction (Count)
system.cpu.commit.committedInstType_0::SimdMultAcc            0      0.00%     84.38% # Class of committed instruction (Count)
system.cpu.commit.committedInstType_0::SimdShift            0      0.00%     84.38% # Class of committed instruction (Count)
system.cpu.commit.committedInstType_0::SimdShiftAcc            0      0.00%     84.38% # Class of committed instruction (Count)
system.cpu.commit.committedInstType_0::SimdDiv            0      0.00%     84.38% # Class of committed instruction (Count)
system.cpu.commit.committedInstType_0::SimdSqrt            0      0.00%     84.38% # Class of committed instruction (Count)
system.cpu.commit.committedInstType_0::SimdFloatAdd            0      0.00%     84.38% # Class of committed instruction (Count)
system.cpu.commit.committedInstType_0::SimdFloatAlu            0      0.00%     84.38% # Class of committed instruction (Count)
system.cpu.commit.committedInstType_0::SimdFloatCmp            0      0.00%     84.38% # Class of committed instruction (Count)
system.cpu.commit.committedInstType_0::SimdFloatCvt            0      0.00%     84.38% # Class of committed instruction (Count)
system.cpu.commit.committedInstType_0::SimdFloatDiv            0      0.00%     84.38% # Class of committed instruction (Count)
system.cpu.commit.committedInstType_0::SimdFloatMisc            0      0.00%     84.38% # Class of committed instruction (Count)
system.cpu.commit.committedInstType_0::SimdFloatMult            0      0.00%     84.38% # Class of committed instruction (Count)
system.cpu.commit.committedInstType_0::SimdFloatMultAcc            0      0.00%     84.38% # Class of committed instruction (Count)
system.cpu.commit.committedInstType_0::SimdFloatSqrt            0      0.00%     84.38% # Class of committed instruction (Count)
system.cpu.commit.committedInstType_0::SimdReduceAdd            0      0.00%     84.38% # Class of committed instruction (Count)
system.cpu.commit.committedInstType_0::SimdReduceAlu            0      0.00%     84.38% # Class of committed instruction (Count)
system.cpu.commit.committedInstType_0::SimdReduceCmp            0      0.00%     84.38% # Class of committed instruction (Count)
system.cpu.commit.committedInstType_0::SimdFloatReduceAdd            0      0.00%     84.38% # Class of committed instruction (Count)
system.cpu.commit.committedInstType_0::SimdFloatReduceCmp            0      0.00%     84.38% # Class of committed instruction (Count)
system.cpu.commit.committedInstType_0::SimdAes            0      0.00%     84.38% # Class of committed instruction (Count)
system.cpu.commit.committedInstType_0::SimdAesMix            0      0.00%     84.38% # Class of committed instruction (Count)
system.cpu.commit.committedInstType_0::SimdSha1Hash            0      0.00%     84.38% # Class of committed instruction (Count)
system.cpu.commit.committedInstType_0::SimdSha1Hash2            0      0.00%     84.38% # Class of committed instruction (Count)
system.cpu.commit.committedInstType_0::SimdSha256Hash            0      0.00%     84.38% # Class of committed instruction (Count)
system.cpu.commit.committedInstType_0::SimdSha256Hash2            0      0.00%     84.38% # Class of committed instruction (Count)
system.cpu.commit.committedInstType_0::SimdShaSigma2            0      0.00%     84.38% # Class of committed instruction (Count)
system.cpu.commit.committedInstType_0::SimdShaSigma3            0      0.00%     84.38% # Class of committed instruction (Count)
system.cpu.commit.committedInstType_0::SimdPredAlu            0      0.00%     84.38% # Class of committed instruction (Count)
system.cpu.commit.committedInstType_0::MemRead       326687      7.78%     92.16% # Class of committed instruction (Count)
system.cpu.commit.committedInstType_0::MemWrite       230196      5.48%     97.64% # Class of committed instruction (Count)
system.cpu.commit.committedInstType_0::FloatMemRead        49272      1.17%     98.82% # Class of committed instruction (Count)
system.cpu.commit.committedInstType_0::FloatMemWrite        49684      1.18%    100.00% # Class of committed instruction (Count)
system.cpu.commit.committedInstType_0::IprAccess            0      0.00%    100.00% # Class of committed instruction (Count)
system.cpu.commit.committedInstType_0::InstPrefetch            0      0.00%    100.00% # Class of committed instruction (Count)
system.cpu.commit.committedInstType_0::total      4197990                       # Class of committed instruction (Count)
system.cpu.commit.commitEligibleSamples          7334                       # number cycles where commit BW limit reached (Cycle)
system.cpu.dcache.demandHits::cpu.data         649025                       # number of demand (read+write) hits (Count)
system.cpu.dcache.demandHits::total            649025                       # number of demand (read+write) hits (Count)
system.cpu.dcache.overallHits::cpu.data        649025                       # number of overall hits (Count)
system.cpu.dcache.overallHits::total           649025                       # number of overall hits (Count)
system.cpu.dcache.demandMisses::cpu.data         2681                       # number of demand (read+write) misses (Count)
system.cpu.dcache.demandMisses::total            2681                       # number of demand (read+write) misses (Count)
system.cpu.dcache.overallMisses::cpu.data         2681                       # number of overall misses (Count)
system.cpu.dcache.overallMisses::total           2681                       # number of overall misses (Count)
system.cpu.dcache.demandMissLatency::cpu.data    148627999                       # number of demand (read+write) miss ticks (Tick)
system.cpu.dcache.demandMissLatency::total    148627999                       # number of demand (read+write) miss ticks (Tick)
system.cpu.dcache.overallMissLatency::cpu.data    148627999                       # number of overall miss ticks (Tick)
system.cpu.dcache.overallMissLatency::total    148627999                       # number of overall miss ticks (Tick)
system.cpu.dcache.demandAccesses::cpu.data       651706                       # number of demand (read+write) accesses (Count)
system.cpu.dcache.demandAccesses::total        651706                       # number of demand (read+write) accesses (Count)
system.cpu.dcache.overallAccesses::cpu.data       651706                       # number of overall (read+write) accesses (Count)
system.cpu.dcache.overallAccesses::total       651706                       # number of overall (read+write) accesses (Count)
system.cpu.dcache.demandMissRate::cpu.data     0.004114                       # miss rate for demand accesses (Ratio)
system.cpu.dcache.demandMissRate::total      0.004114                       # miss rate for demand accesses (Ratio)
system.cpu.dcache.overallMissRate::cpu.data     0.004114                       # miss rate for overall accesses (Ratio)
system.cpu.dcache.overallMissRate::total     0.004114                       # miss rate for overall accesses (Ratio)
system.cpu.dcache.demandAvgMissLatency::cpu.data 55437.522939                       # average overall miss latency ((Cycle/Count))
system.cpu.dcache.demandAvgMissLatency::total 55437.522939                       # average overall miss latency ((Cycle/Count))
system.cpu.dcache.overallAvgMissLatency::cpu.data 55437.522939                       # average overall miss latency ((Cycle/Count))
system.cpu.dcache.overallAvgMissLatency::total 55437.522939                       # average overall miss latency ((Cycle/Count))
system.cpu.dcache.blockedCycles::no_mshrs          354                       # number of cycles access was blocked (Cycle)
system.cpu.dcache.blockedCycles::no_targets            0                       # number of cycles access was blocked (Cycle)
system.cpu.dcache.blockedCauses::no_mshrs           17                       # number of times access was blocked (Count)
system.cpu.dcache.blockedCauses::no_targets            0                       # number of times access was blocked (Count)
system.cpu.dcache.avgBlocked::no_mshrs      20.823529                       # average number of cycles each access was blocked ((Cycle/Count))
system.cpu.dcache.avgBlocked::no_targets          nan                       # average number of cycles each access was blocked ((Cycle/Count))
system.cpu.dcache.writebacks::writebacks          183                       # number of writebacks (Count)
system.cpu.dcache.writebacks::total               183                       # number of writebacks (Count)
system.cpu.dcache.demandMshrHits::cpu.data         1399                       # number of demand (read+write) MSHR hits (Count)
system.cpu.dcache.demandMshrHits::total          1399                       # number of demand (read+write) MSHR hits (Count)
system.cpu.dcache.overallMshrHits::cpu.data         1399                       # number of overall MSHR hits (Count)
system.cpu.dcache.overallMshrHits::total         1399                       # number of overall MSHR hits (Count)
system.cpu.dcache.demandMshrMisses::cpu.data         1282                       # number of demand (read+write) MSHR misses (Count)
system.cpu.dcache.demandMshrMisses::total         1282                       # number of demand (read+write) MSHR misses (Count)
system.cpu.dcache.overallMshrMisses::cpu.data         1282                       # number of overall MSHR misses (Count)
system.cpu.dcache.overallMshrMisses::total         1282                       # number of overall MSHR misses (Count)
system.cpu.dcache.demandMshrMissLatency::cpu.data     79228999                       # number of demand (read+write) MSHR miss ticks (Tick)
system.cpu.dcache.demandMshrMissLatency::total     79228999                       # number of demand (read+write) MSHR miss ticks (Tick)
system.cpu.dcache.overallMshrMissLatency::cpu.data     79228999                       # number of overall MSHR miss ticks (Tick)
system.cpu.dcache.overallMshrMissLatency::total     79228999                       # number of overall MSHR miss ticks (Tick)
system.cpu.dcache.demandMshrMissRate::cpu.data     0.001967                       # mshr miss ratio for demand accesses (Ratio)
system.cpu.dcache.demandMshrMissRate::total     0.001967                       # mshr miss ratio for demand accesses (Ratio)
system.cpu.dcache.overallMshrMissRate::cpu.data     0.001967                       # mshr miss ratio for overall accesses (Ratio)
system.cpu.dcache.overallMshrMissRate::total     0.001967                       # mshr miss ratio for overall accesses (Ratio)
system.cpu.dcache.demandAvgMshrMissLatency::cpu.data 61801.091264                       # average overall mshr miss latency ((Cycle/Count))
system.cpu.dcache.demandAvgMshrMissLatency::total 61801.091264                       # average overall mshr miss latency ((Cycle/Count))
system.cpu.dcache.overallAvgMshrMissLatency::cpu.data 61801.091264                       # average overall mshr miss latency ((Cycle/Count))
system.cpu.dcache.overallAvgMshrMissLatency::total 61801.091264                       # average overall mshr miss latency ((Cycle/Count))
system.cpu.dcache.replacements                    258                       # number of replacements (Count)
system.cpu.dcache.ReadReq.hits::cpu.data       369778                       # number of ReadReq hits (Count)
system.cpu.dcache.ReadReq.hits::total          369778                       # number of ReadReq hits (Count)
system.cpu.dcache.ReadReq.misses::cpu.data         2047                       # number of ReadReq misses (Count)
system.cpu.dcache.ReadReq.misses::total          2047                       # number of ReadReq misses (Count)
system.cpu.dcache.ReadReq.missLatency::cpu.data    109492000                       # number of ReadReq miss ticks (Tick)
system.cpu.dcache.ReadReq.missLatency::total    109492000                       # number of ReadReq miss ticks (Tick)
system.cpu.dcache.ReadReq.accesses::cpu.data       371825                       # number of ReadReq accesses(hits+misses) (Count)
system.cpu.dcache.ReadReq.accesses::total       371825                       # number of ReadReq accesses(hits+misses) (Count)
system.cpu.dcache.ReadReq.missRate::cpu.data     0.005505                       # miss rate for ReadReq accesses (Ratio)
system.cpu.dcache.ReadReq.missRate::total     0.005505                       # miss rate for ReadReq accesses (Ratio)
system.cpu.dcache.ReadReq.avgMissLatency::cpu.data 53489.008305                       # average ReadReq miss latency ((Tick/Count))
system.cpu.dcache.ReadReq.avgMissLatency::total 53489.008305                       # average ReadReq miss latency ((Tick/Count))
system.cpu.dcache.ReadReq.mshrHits::cpu.data         1394                       # number of ReadReq MSHR hits (Count)
system.cpu.dcache.ReadReq.mshrHits::total         1394                       # number of ReadReq MSHR hits (Count)
system.cpu.dcache.ReadReq.mshrMisses::cpu.data          653                       # number of ReadReq MSHR misses (Count)
system.cpu.dcache.ReadReq.mshrMisses::total          653                       # number of ReadReq MSHR misses (Count)
system.cpu.dcache.ReadReq.mshrMissLatency::cpu.data     41568000                       # number of ReadReq MSHR miss ticks (Tick)
system.cpu.dcache.ReadReq.mshrMissLatency::total     41568000                       # number of ReadReq MSHR miss ticks (Tick)
system.cpu.dcache.ReadReq.mshrMissRate::cpu.data     0.001756                       # mshr miss rate for ReadReq accesses (Ratio)
system.cpu.dcache.ReadReq.mshrMissRate::total     0.001756                       # mshr miss rate for ReadReq accesses (Ratio)
system.cpu.dcache.ReadReq.avgMshrMissLatency::cpu.data 63656.967841                       # average ReadReq mshr miss latency ((Tick/Count))
system.cpu.dcache.ReadReq.avgMshrMissLatency::total 63656.967841                       # average ReadReq mshr miss latency ((Tick/Count))
system.cpu.dcache.WriteReq.hits::cpu.data       279247                       # number of WriteReq hits (Count)
system.cpu.dcache.WriteReq.hits::total         279247                       # number of WriteReq hits (Count)
system.cpu.dcache.WriteReq.misses::cpu.data          634                       # number of WriteReq misses (Count)
system.cpu.dcache.WriteReq.misses::total          634                       # number of WriteReq misses (Count)
system.cpu.dcache.WriteReq.missLatency::cpu.data     39135999                       # number of WriteReq miss ticks (Tick)
system.cpu.dcache.WriteReq.missLatency::total     39135999                       # number of WriteReq miss ticks (Tick)
system.cpu.dcache.WriteReq.accesses::cpu.data       279881                       # number of WriteReq accesses(hits+misses) (Count)
system.cpu.dcache.WriteReq.accesses::total       279881                       # number of WriteReq accesses(hits+misses) (Count)
system.cpu.dcache.WriteReq.missRate::cpu.data     0.002265                       # miss rate for WriteReq accesses (Ratio)
system.cpu.dcache.WriteReq.missRate::total     0.002265                       # miss rate for WriteReq accesses (Ratio)
system.cpu.dcache.WriteReq.avgMissLatency::cpu.data 61728.705047                       # average WriteReq miss latency ((Tick/Count))
system.cpu.dcache.WriteReq.avgMissLatency::total 61728.705047                       # average WriteReq miss latency ((Tick/Count))
system.cpu.dcache.WriteReq.mshrHits::cpu.data            5                       # number of WriteReq MSHR hits (Count)
system.cpu.dcache.WriteReq.mshrHits::total            5                       # number of WriteReq MSHR hits (Count)
system.cpu.dcache.WriteReq.mshrMisses::cpu.data          629                       # number of WriteReq MSHR misses (Count)
system.cpu.dcache.WriteReq.mshrMisses::total          629                       # number of WriteReq MSHR misses (Count)
system.cpu.dcache.WriteReq.mshrMissLatency::cpu.data     37660999                       # number of WriteReq MSHR miss ticks (Tick)
system.cpu.dcache.WriteReq.mshrMissLatency::total     37660999                       # number of WriteReq MSHR miss ticks (Tick)
system.cpu.dcache.WriteReq.mshrMissRate::cpu.data     0.002247                       # mshr miss rate for WriteReq accesses (Ratio)
system.cpu.dcache.WriteReq.mshrMissRate::total     0.002247                       # mshr miss rate for WriteReq accesses (Ratio)
system.cpu.dcache.WriteReq.avgMshrMissLatency::cpu.data 59874.402226                       # average WriteReq mshr miss latency ((Tick/Count))
system.cpu.dcache.WriteReq.avgMshrMissLatency::total 59874.402226                       # average WriteReq mshr miss latency ((Tick/Count))
system.cpu.dcache.power_state.pwrStateResidencyTicks::UNDEFINED   3069768000                       # Cumulative time (in ticks) in various power states (Tick)
system.cpu.dcache.tags.tagsInUse           689.680066                       # Average ticks per tags in use ((Tick/Count))
system.cpu.dcache.tags.totalRefs               650307                       # Total number of references to valid blocks. (Count)
system.cpu.dcache.tags.sampledRefs               1282                       # Sample count of references to valid blocks. (Count)
system.cpu.dcache.tags.avgRefs             507.259750                       # Average number of references to valid blocks. ((Count/Count))
system.cpu.dcache.tags.warmupTick              151000                       # The tick when the warmup percentage was hit. (Tick)
system.cpu.dcache.tags.occupancies::cpu.data   689.680066                       # Average occupied blocks per tick, per requestor ((Count/Tick))
system.cpu.dcache.tags.avgOccs::cpu.data     0.673516                       # Average percentage of cache occupancy ((Ratio/Tick))
system.cpu.dcache.tags.avgOccs::total        0.673516                       # Average percentage of cache occupancy ((Ratio/Tick))
system.cpu.dcache.tags.occupanciesTaskId::1024         1024                       # Occupied blocks per task id (Count)
system.cpu.dcache.tags.ageTaskId_1024::0           34                       # Occupied blocks per task id, per block age (Count)
system.cpu.dcache.tags.ageTaskId_1024::1            1                       # Occupied blocks per task id, per block age (Count)
system.cpu.dcache.tags.ageTaskId_1024::2          255                       # Occupied blocks per task id, per block age (Count)
system.cpu.dcache.tags.ageTaskId_1024::3          734                       # Occupied blocks per task id, per block age (Count)
system.cpu.dcache.tags.ratioOccsTaskId::1024            1                       # Ratio of occupied blocks and all blocks, per task id (Ratio)
system.cpu.dcache.tags.tagAccesses            1304694                       # Number of tag accesses (Count)
system.cpu.dcache.tags.dataAccesses           1304694                       # Number of data accesses (Count)
system.cpu.dcache.tags.power_state.pwrStateResidencyTicks::UNDEFINED   3069768000                       # Cumulative time (in ticks) in various power states (Tick)
system.cpu.decode.idleCycles                   369038                       # Number of cycles decode is idle (Cycle)
system.cpu.decode.blockedCycles               1517125                       # Number of cycles decode is blocked (Cycle)
system.cpu.decode.runCycles                    661994                       # Number of cycles decode is running (Cycle)
system.cpu.decode.unblockCycles                456499                       # Number of cycles decode is unblocking (Cycle)
system.cpu.decode.squashCycles                  55627                       # Number of cycles decode is squashing (Cycle)
system.cpu.decode.branchResolved               338584                       # Number of times decode resolved a branch (Count)
system.cpu.decode.branchMispred                  2634                       # Number of times decode detected a branch misprediction (Count)
system.cpu.decode.decodedInsts                8262913                       # Number of instructions handled by decode (Count)
system.cpu.decode.squashedInsts                  6600                       # Number of squashed instructions handled by decode (Count)
system.cpu.dtb_walker_cache.blockedCycles::no_mshrs            0                       # number of cycles access was blocked (Cycle)
system.cpu.dtb_walker_cache.blockedCycles::no_targets            0                       # number of cycles access was blocked (Cycle)
system.cpu.dtb_walker_cache.blockedCauses::no_mshrs            0                       # number of times access was blocked (Count)
system.cpu.dtb_walker_cache.blockedCauses::no_targets            0                       # number of times access was blocked (Count)
system.cpu.dtb_walker_cache.avgBlocked::no_mshrs          nan                       # average number of cycles each access was blocked ((Cycle/Count))
system.cpu.dtb_walker_cache.avgBlocked::no_targets          nan                       # average number of cycles each access was blocked ((Cycle/Count))
system.cpu.dtb_walker_cache.replacements            0                       # number of replacements (Count)
system.cpu.dtb_walker_cache.power_state.pwrStateResidencyTicks::UNDEFINED   3069768000                       # Cumulative time (in ticks) in various power states (Tick)
system.cpu.dtb_walker_cache.tags.tagsInUse            0                       # Average ticks per tags in use ((Tick/Count))
system.cpu.dtb_walker_cache.tags.totalRefs            0                       # Total number of references to valid blocks. (Count)
system.cpu.dtb_walker_cache.tags.sampledRefs            0                       # Sample count of references to valid blocks. (Count)
system.cpu.dtb_walker_cache.tags.avgRefs          nan                       # Average number of references to valid blocks. ((Count/Count))
system.cpu.dtb_walker_cache.tags.warmupTick            0                       # The tick when the warmup percentage was hit. (Tick)
system.cpu.dtb_walker_cache.tags.tagAccesses            0                       # Number of tag accesses (Count)
system.cpu.dtb_walker_cache.tags.dataAccesses            0                       # Number of data accesses (Count)
system.cpu.dtb_walker_cache.tags.power_state.pwrStateResidencyTicks::UNDEFINED   3069768000                       # Cumulative time (in ticks) in various power states (Tick)
system.cpu.fetch.icacheStallCycles             674311                       # Number of cycles fetch is stalled on an Icache miss (Cycle)
system.cpu.fetch.insts                        5772303                       # Number of instructions fetch has processed (Count)
system.cpu.fetch.branches                     1282715                       # Number of branches that fetch encountered (Count)
system.cpu.fetch.predictedBranches             409904                       # Number of branches that fetch has predicted taken (Count)
system.cpu.fetch.cycles                       2327307                       # Number of cycles fetch has run and was not squashing or blocked (Cycle)
system.cpu.fetch.squashCycles                  116284                       # Number of cycles fetch has spent squashing (Cycle)
system.cpu.fetch.miscStallCycles                   58                       # Number of cycles fetch has spent waiting on interrupts, or bad addresses, or out of MSHRs (Cycle)
system.cpu.fetch.pendingTrapStallCycles           464                       # Number of stall cycles due to pending traps (Cycle)
system.cpu.fetch.pendingQuiesceStallCycles            1                       # Number of stall cycles due to pending quiesce instructions (Cycle)
system.cpu.fetch.cacheLines                    634866                       # Number of cache lines fetched (Count)
system.cpu.fetch.icacheSquashes                 12731                       # Number of outstanding Icache misses that were squashed (Count)
system.cpu.fetch.nisnDist::samples            3060283                       # Number of instructions fetched each cycle (Total) (Count)
system.cpu.fetch.nisnDist::mean              3.135054                       # Number of instructions fetched each cycle (Total) (Count)
system.cpu.fetch.nisnDist::stdev             3.511695                       # Number of instructions fetched each cycle (Total) (Count)
system.cpu.fetch.nisnDist::underflows               0      0.00%      0.00% # Number of instructions fetched each cycle (Total) (Count)
system.cpu.fetch.nisnDist::0                  1433083     46.83%     46.83% # Number of instructions fetched each cycle (Total) (Count)
system.cpu.fetch.nisnDist::1                   159928      5.23%     52.05% # Number of instructions fetched each cycle (Total) (Count)
system.cpu.fetch.nisnDist::2                   141079      4.61%     56.66% # Number of instructions fetched each cycle (Total) (Count)
system.cpu.fetch.nisnDist::3                   109865      3.59%     60.25% # Number of instructions fetched each cycle (Total) (Count)
system.cpu.fetch.nisnDist::4                   100663      3.29%     63.54% # Number of instructions fetched each cycle (Total) (Count)
system.cpu.fetch.nisnDist::5                    91445      2.99%     66.53% # Number of instructions fetched each cycle (Total) (Count)
system.cpu.fetch.nisnDist::6                    62611      2.05%     68.58% # Number of instructions fetched each cycle (Total) (Count)
system.cpu.fetch.nisnDist::7                   105943      3.46%     72.04% # Number of instructions fetched each cycle (Total) (Count)
system.cpu.fetch.nisnDist::8                   855666     27.96%    100.00% # Number of instructions fetched each cycle (Total) (Count)
system.cpu.fetch.nisnDist::overflows                0      0.00%    100.00% # Number of instructions fetched each cycle (Total) (Count)
system.cpu.fetch.nisnDist::min_value                0                       # Number of instructions fetched each cycle (Total) (Count)
system.cpu.fetch.nisnDist::max_value                8                       # Number of instructions fetched each cycle (Total) (Count)
system.cpu.fetch.nisnDist::total              3060283                       # Number of instructions fetched each cycle (Total) (Count)
system.cpu.fetch.branchRate                  0.417854                       # Number of branch fetches per cycle (Ratio)
system.cpu.fetch.rate                        1.880370                       # Number of inst fetches per cycle ((Count/Cycle))
system.cpu.icache.demandHits::cpu.inst         634277                       # number of demand (read+write) hits (Count)
system.cpu.icache.demandHits::total            634277                       # number of demand (read+write) hits (Count)
system.cpu.icache.overallHits::cpu.inst        634277                       # number of overall hits (Count)
system.cpu.icache.overallHits::total           634277                       # number of overall hits (Count)
system.cpu.icache.demandMisses::cpu.inst          589                       # number of demand (read+write) misses (Count)
system.cpu.icache.demandMisses::total             589                       # number of demand (read+write) misses (Count)
system.cpu.icache.overallMisses::cpu.inst          589                       # number of overall misses (Count)
system.cpu.icache.overallMisses::total            589                       # number of overall misses (Count)
system.cpu.icache.demandMissLatency::cpu.inst     35727000                       # number of demand (read+write) miss ticks (Tick)
system.cpu.icache.demandMissLatency::total     35727000                       # number of demand (read+write) miss ticks (Tick)
system.cpu.icache.overallMissLatency::cpu.inst     35727000                       # number of overall miss ticks (Tick)
system.cpu.icache.overallMissLatency::total     35727000                       # number of overall miss ticks (Tick)
system.cpu.icache.demandAccesses::cpu.inst       634866                       # number of demand (read+write) accesses (Count)
system.cpu.icache.demandAccesses::total        634866                       # number of demand (read+write) accesses (Count)
system.cpu.icache.overallAccesses::cpu.inst       634866                       # number of overall (read+write) accesses (Count)
system.cpu.icache.overallAccesses::total       634866                       # number of overall (read+write) accesses (Count)
system.cpu.icache.demandMissRate::cpu.inst     0.000928                       # miss rate for demand accesses (Ratio)
system.cpu.icache.demandMissRate::total      0.000928                       # miss rate for demand accesses (Ratio)
system.cpu.icache.overallMissRate::cpu.inst     0.000928                       # miss rate for overall accesses (Ratio)
system.cpu.icache.overallMissRate::total     0.000928                       # miss rate for overall accesses (Ratio)
system.cpu.icache.demandAvgMissLatency::cpu.inst 60657.045840                       # average overall miss latency ((Cycle/Count))
system.cpu.icache.demandAvgMissLatency::total 60657.045840                       # average overall miss latency ((Cycle/Count))
system.cpu.icache.overallAvgMissLatency::cpu.inst 60657.045840                       # average overall miss latency ((Cycle/Count))
system.cpu.icache.overallAvgMissLatency::total 60657.045840                       # average overall miss latency ((Cycle/Count))
system.cpu.icache.blockedCycles::no_mshrs            0                       # number of cycles access was blocked (Cycle)
system.cpu.icache.blockedCycles::no_targets            0                       # number of cycles access was blocked (Cycle)
system.cpu.icache.blockedCauses::no_mshrs            0                       # number of times access was blocked (Count)
system.cpu.icache.blockedCauses::no_targets            0                       # number of times access was blocked (Count)
system.cpu.icache.avgBlocked::no_mshrs            nan                       # average number of cycles each access was blocked ((Cycle/Count))
system.cpu.icache.avgBlocked::no_targets          nan                       # average number of cycles each access was blocked ((Cycle/Count))
system.cpu.icache.writebacks::writebacks           33                       # number of writebacks (Count)
system.cpu.icache.writebacks::total                33                       # number of writebacks (Count)
system.cpu.icache.demandMshrHits::cpu.inst          104                       # number of demand (read+write) MSHR hits (Count)
system.cpu.icache.demandMshrHits::total           104                       # number of demand (read+write) MSHR hits (Count)
system.cpu.icache.overallMshrHits::cpu.inst          104                       # number of overall MSHR hits (Count)
system.cpu.icache.overallMshrHits::total          104                       # number of overall MSHR hits (Count)
system.cpu.icache.demandMshrMisses::cpu.inst          485                       # number of demand (read+write) MSHR misses (Count)
system.cpu.icache.demandMshrMisses::total          485                       # number of demand (read+write) MSHR misses (Count)
system.cpu.icache.overallMshrMisses::cpu.inst          485                       # number of overall MSHR misses (Count)
system.cpu.icache.overallMshrMisses::total          485                       # number of overall MSHR misses (Count)
system.cpu.icache.demandMshrMissLatency::cpu.inst     29795000                       # number of demand (read+write) MSHR miss ticks (Tick)
system.cpu.icache.demandMshrMissLatency::total     29795000                       # number of demand (read+write) MSHR miss ticks (Tick)
system.cpu.icache.overallMshrMissLatency::cpu.inst     29795000                       # number of overall MSHR miss ticks (Tick)
system.cpu.icache.overallMshrMissLatency::total     29795000                       # number of overall MSHR miss ticks (Tick)
system.cpu.icache.demandMshrMissRate::cpu.inst     0.000764                       # mshr miss ratio for demand accesses (Ratio)
system.cpu.icache.demandMshrMissRate::total     0.000764                       # mshr miss ratio for demand accesses (Ratio)
system.cpu.icache.overallMshrMissRate::cpu.inst     0.000764                       # mshr miss ratio for overall accesses (Ratio)
system.cpu.icache.overallMshrMissRate::total     0.000764                       # mshr miss ratio for overall accesses (Ratio)
system.cpu.icache.demandAvgMshrMissLatency::cpu.inst 61432.989691                       # average overall mshr miss latency ((Cycle/Count))
system.cpu.icache.demandAvgMshrMissLatency::total 61432.989691                       # average overall mshr miss latency ((Cycle/Count))
system.cpu.icache.overallAvgMshrMissLatency::cpu.inst 61432.989691                       # average overall mshr miss latency ((Cycle/Count))
system.cpu.icache.overallAvgMshrMissLatency::total 61432.989691                       # average overall mshr miss latency ((Cycle/Count))
system.cpu.icache.replacements                     33                       # number of replacements (Count)
system.cpu.icache.ReadReq.hits::cpu.inst       634277                       # number of ReadReq hits (Count)
system.cpu.icache.ReadReq.hits::total          634277                       # number of ReadReq hits (Count)
system.cpu.icache.ReadReq.misses::cpu.inst          589                       # number of ReadReq misses (Count)
system.cpu.icache.ReadReq.misses::total           589                       # number of ReadReq misses (Count)
system.cpu.icache.ReadReq.missLatency::cpu.inst     35727000                       # number of ReadReq miss ticks (Tick)
system.cpu.icache.ReadReq.missLatency::total     35727000                       # number of ReadReq miss ticks (Tick)
system.cpu.icache.ReadReq.accesses::cpu.inst       634866                       # number of ReadReq accesses(hits+misses) (Count)
system.cpu.icache.ReadReq.accesses::total       634866                       # number of ReadReq accesses(hits+misses) (Count)
system.cpu.icache.ReadReq.missRate::cpu.inst     0.000928                       # miss rate for ReadReq accesses (Ratio)
system.cpu.icache.ReadReq.missRate::total     0.000928                       # miss rate for ReadReq accesses (Ratio)
system.cpu.icache.ReadReq.avgMissLatency::cpu.inst 60657.045840                       # average ReadReq miss latency ((Tick/Count))
system.cpu.icache.ReadReq.avgMissLatency::total 60657.045840                       # average ReadReq miss latency ((Tick/Count))
system.cpu.icache.ReadReq.mshrHits::cpu.inst          104                       # number of ReadReq MSHR hits (Count)
system.cpu.icache.ReadReq.mshrHits::total          104                       # number of ReadReq MSHR hits (Count)
system.cpu.icache.ReadReq.mshrMisses::cpu.inst          485                       # number of ReadReq MSHR misses (Count)
system.cpu.icache.ReadReq.mshrMisses::total          485                       # number of ReadReq MSHR misses (Count)
system.cpu.icache.ReadReq.mshrMissLatency::cpu.inst     29795000                       # number of ReadReq MSHR miss ticks (Tick)
system.cpu.icache.ReadReq.mshrMissLatency::total     29795000                       # number of ReadReq MSHR miss ticks (Tick)
system.cpu.icache.ReadReq.mshrMissRate::cpu.inst     0.000764                       # mshr miss rate for ReadReq accesses (Ratio)
system.cpu.icache.ReadReq.mshrMissRate::total     0.000764                       # mshr miss rate for ReadReq accesses (Ratio)
system.cpu.icache.ReadReq.avgMshrMissLatency::cpu.inst 61432.989691                       # average ReadReq mshr miss latency ((Tick/Count))
system.cpu.icache.ReadReq.avgMshrMissLatency::total 61432.989691                       # average ReadReq mshr miss latency ((Tick/Count))
system.cpu.icache.power_state.pwrStateResidencyTicks::UNDEFINED   3069768000                       # Cumulative time (in ticks) in various power states (Tick)
system.cpu.icache.tags.tagsInUse           414.874865                       # Average ticks per tags in use ((Tick/Count))
system.cpu.icache.tags.totalRefs               634761                       # Total number of references to valid blocks. (Count)
system.cpu.icache.tags.sampledRefs                484                       # Sample count of references to valid blocks. (Count)
system.cpu.icache.tags.avgRefs            1311.489669                       # Average number of references to valid blocks. ((Count/Count))
system.cpu.icache.tags.warmupTick               77000                       # The tick when the warmup percentage was hit. (Tick)
system.cpu.icache.tags.occupancies::cpu.inst   414.874865                       # Average occupied blocks per tick, per requestor ((Count/Tick))
system.cpu.icache.tags.avgOccs::cpu.inst     0.405151                       # Average percentage of cache occupancy ((Ratio/Tick))
system.cpu.icache.tags.avgOccs::total        0.405151                       # Average percentage of cache occupancy ((Ratio/Tick))
system.cpu.icache.tags.occupanciesTaskId::1024          451                       # Occupied blocks per task id (Count)
system.cpu.icache.tags.ageTaskId_1024::0           38                       # Occupied blocks per task id, per block age (Count)
system.cpu.icache.tags.ageTaskId_1024::3          413                       # Occupied blocks per task id, per block age (Count)
system.cpu.icache.tags.ratioOccsTaskId::1024     0.440430                       # Ratio of occupied blocks and all blocks, per task id (Ratio)
system.cpu.icache.tags.tagAccesses            1270216                       # Number of tag accesses (Count)
system.cpu.icache.tags.dataAccesses           1270216                       # Number of data accesses (Count)
system.cpu.icache.tags.power_state.pwrStateResidencyTicks::UNDEFINED   3069768000                       # Cumulative time (in ticks) in various power states (Tick)
system.cpu.iew.idleCycles                           0                       # Number of cycles IEW is idle (Cycle)
system.cpu.iew.squashCycles                     55627                       # Number of cycles IEW is squashing (Cycle)
system.cpu.iew.blockCycles                     415645                       # Number of cycles IEW is blocking (Cycle)
system.cpu.iew.unblockCycles                      834                       # Number of cycles IEW is unblocking (Cycle)
system.cpu.iew.dispatchedInsts                7702953                       # Number of instructions dispatched to IQ (Count)
system.cpu.iew.dispSquashedInsts                  574                       # Number of squashed instructions skipped by dispatch (Count)
system.cpu.iew.dispLoadInsts                   663943                       # Number of dispatched load instructions (Count)
system.cpu.iew.dispStoreInsts                  457339                       # Number of dispatched store instructions (Count)
system.cpu.iew.dispNonSpecInsts                     3                       # Number of dispatched non-speculative instructions (Count)
system.cpu.iew.iqFullEvents                       321                       # Number of times the IQ has become full, causing a stall (Count)
system.cpu.iew.lsqFullEvents                      335                       # Number of times the LSQ has become full, causing a stall (Count)
system.cpu.iew.memOrderViolationEvents             15                       # Number of memory order violations (Count)
system.cpu.iew.predictedTakenIncorrect          24076                       # Number of branches that were predicted taken incorrectly (Count)
system.cpu.iew.predictedNotTakenIncorrect        31604                       # Number of branches that were predicted not taken incorrectly (Count)
system.cpu.iew.branchMispredicts                55680                       # Number of branch mispredicts detected at execute (Count)
system.cpu.iew.instsToCommit                  4651579                       # Cumulative count of insts sent to commit (Count)
system.cpu.iew.writebackCount                 4650596                       # Cumulative count of insts written-back (Count)
system.cpu.iew.producerInst                   3615613                       # Number of instructions producing a value (Count)
system.cpu.iew.consumerInst                   6254459                       # Number of instructions consuming a value (Count)
system.cpu.iew.wbRate                        1.514966                       # Insts written-back per cycle ((Count/Cycle))
system.cpu.iew.wbFanout                      0.578086                       # Average fanout of values written-back ((Count/Count))
system.cpu.interrupts.clk_domain.clock          16000                       # Clock period in ticks (Tick)
system.cpu.itb_walker_cache.blockedCycles::no_mshrs            0                       # number of cycles access was blocked (Cycle)
system.cpu.itb_walker_cache.blockedCycles::no_targets            0                       # number of cycles access was blocked (Cycle)
system.cpu.itb_walker_cache.blockedCauses::no_mshrs            0                       # number of times access was blocked (Count)
system.cpu.itb_walker_cache.blockedCauses::no_targets            0                       # number of times access was blocked (Count)
system.cpu.itb_walker_cache.avgBlocked::no_mshrs          nan                       # average number of cycles each access was blocked ((Cycle/Count))
system.cpu.itb_walker_cache.avgBlocked::no_targets          nan                       # average number of cycles each access was blocked ((Cycle/Count))
system.cpu.itb_walker_cache.replacements            0                       # number of replacements (Count)
system.cpu.itb_walker_cache.power_state.pwrStateResidencyTicks::UNDEFINED   3069768000                       # Cumulative time (in ticks) in various power states (Tick)
system.cpu.itb_walker_cache.tags.tagsInUse            0                       # Average ticks per tags in use ((Tick/Count))
system.cpu.itb_walker_cache.tags.totalRefs            0                       # Total number of references to valid blocks. (Count)
system.cpu.itb_walker_cache.tags.sampledRefs            0                       # Sample count of references to valid blocks. (Count)
system.cpu.itb_walker_cache.tags.avgRefs          nan                       # Average number of references to valid blocks. ((Count/Count))
system.cpu.itb_walker_cache.tags.warmupTick            0                       # The tick when the warmup percentage was hit. (Tick)
system.cpu.itb_walker_cache.tags.tagAccesses            0                       # Number of tag accesses (Count)
system.cpu.itb_walker_cache.tags.dataAccesses            0                       # Number of data accesses (Count)
system.cpu.itb_walker_cache.tags.power_state.pwrStateResidencyTicks::UNDEFINED   3069768000                       # Cumulative time (in ticks) in various power states (Tick)
system.cpu.lsq0.forwLoads                        9899                       # Number of loads that had data forwarded from stores (Count)
system.cpu.lsq0.squashedLoads                  287984                       # Number of loads squashed (Count)
system.cpu.lsq0.ignoredResponses                    1                       # Number of memory responses ignored because the instruction is squashed (Count)
system.cpu.lsq0.memOrderViolation                  15                       # Number of memory ordering violations (Count)
system.cpu.lsq0.squashedStores                 177459                       # Number of stores squashed (Count)
system.cpu.lsq0.rescheduledLoads                    0                       # Number of loads that were rescheduled (Count)
system.cpu.lsq0.blockedByCache                     15                       # Number of times an access to memory failed due to the cache being blocked (Count)
system.cpu.lsq0.loadToUse::samples             375959                       # Distribution of cycle latency between the first time a load is issued and its completion (Unspecified)
system.cpu.lsq0.loadToUse::mean              3.244306                       # Distribution of cycle latency between the first time a load is issued and its completion (Unspecified)
system.cpu.lsq0.loadToUse::stdev             4.228982                       # Distribution of cycle latency between the first time a load is issued and its completion (Unspecified)
system.cpu.lsq0.loadToUse::0-9                 374420     99.59%     99.59% # Distribution of cycle latency between the first time a load is issued and its completion (Unspecified)
system.cpu.lsq0.loadToUse::10-19                  121      0.03%     99.62% # Distribution of cycle latency between the first time a load is issued and its completion (Unspecified)
system.cpu.lsq0.loadToUse::20-29                   98      0.03%     99.65% # Distribution of cycle latency between the first time a load is issued and its completion (Unspecified)
system.cpu.lsq0.loadToUse::30-39                   98      0.03%     99.67% # Distribution of cycle latency between the first time a load is issued and its completion (Unspecified)
system.cpu.lsq0.loadToUse::40-49                  110      0.03%     99.70% # Distribution of cycle latency between the first time a load is issued and its completion (Unspecified)
system.cpu.lsq0.loadToUse::50-59                  532      0.14%     99.85% # Distribution of cycle latency between the first time a load is issued and its completion (Unspecified)
system.cpu.lsq0.loadToUse::60-69                  284      0.08%     99.92% # Distribution of cycle latency between the first time a load is issued and its completion (Unspecified)
system.cpu.lsq0.loadToUse::70-79                  215      0.06%     99.98% # Distribution of cycle latency between the first time a load is issued and its completion (Unspecified)
system.cpu.lsq0.loadToUse::80-89                   29      0.01%     99.99% # Distribution of cycle latency between the first time a load is issued and its completion (Unspecified)
system.cpu.lsq0.loadToUse::90-99                    4      0.00%     99.99% # Distribution of cycle latency between the first time a load is issued and its completion (Unspecified)
system.cpu.lsq0.loadToUse::100-109                  5      0.00%     99.99% # Distribution of cycle latency between the first time a load is issued and its completion (Unspecified)
system.cpu.lsq0.loadToUse::110-119                  5      0.00%     99.99% # Distribution of cycle latency between the first time a load is issued and its completion (Unspecified)
system.cpu.lsq0.loadToUse::120-129                  3      0.00%     99.99% # Distribution of cycle latency between the first time a load is issued and its completion (Unspecified)
system.cpu.lsq0.loadToUse::160-169                  1      0.00%     99.99% # Distribution of cycle latency between the first time a load is issued and its completion (Unspecified)
[...]
system.mem_ctrls.dram.bwWrite::writebacks      3815272                       # Write bandwidth from this memory ((Byte/Second))
system.mem_ctrls.dram.bwWrite::total          3815272                       # Write bandwidth from this memory ((Byte/Second))
system.mem_ctrls.dram.bwTotal::writebacks      3815272                       # Total bandwidth to/from this memory ((Byte/Second))
system.mem_ctrls.dram.bwTotal::cpu.inst      10090665                       # Total bandwidth to/from this memory ((Byte/Second))
system.mem_ctrls.dram.bwTotal::cpu.data      26727753                       # Total bandwidth to/from this memory ((Byte/Second))
system.mem_ctrls.dram.bwTotal::total         40633690                       # Total bandwidth to/from this memory ((Byte/Second))
system.mem_ctrls.dram.readBursts                 1753                       # Number of DRAM read bursts (Count)
system.mem_ctrls.dram.writeBursts                 188                       # Number of DRAM write bursts (Count)
system.mem_ctrls.dram.perBankRdBursts::0          118                       # Per bank write bursts (Count)
system.mem_ctrls.dram.perBankRdBursts::1          128                       # Per bank write bursts (Count)
system.mem_ctrls.dram.perBankRdBursts::2          143                       # Per bank write bursts (Count)
system.mem_ctrls.dram.perBankRdBursts::3          189                       # Per bank write bursts (Count)
system.mem_ctrls.dram.perBankRdBursts::4          138                       # Per bank write bursts (Count)
system.mem_ctrls.dram.perBankRdBursts::5          123                       # Per bank write bursts (Count)
system.mem_ctrls.dram.perBankRdBursts::6           41                       # Per bank write bursts (Count)
system.mem_ctrls.dram.perBankRdBursts::7          134                       # Per bank write bursts (Count)
system.mem_ctrls.dram.perBankRdBursts::8          209                       # Per bank write bursts (Count)
system.mem_ctrls.dram.perBankRdBursts::9          148                       # Per bank write bursts (Count)
system.mem_ctrls.dram.perBankRdBursts::10          156                       # Per bank write bursts (Count)
system.mem_ctrls.dram.perBankRdBursts::11           61                       # Per bank write bursts (Count)
system.mem_ctrls.dram.perBankRdBursts::12           19                       # Per bank write bursts (Count)
system.mem_ctrls.dram.perBankRdBursts::13           70                       # Per bank write bursts (Count)
system.mem_ctrls.dram.perBankRdBursts::14           41                       # Per bank write bursts (Count)
system.mem_ctrls.dram.perBankRdBursts::15           35                       # Per bank write bursts (Count)
system.mem_ctrls.dram.perBankWrBursts::0            9                       # Per bank write bursts (Count)
system.mem_ctrls.dram.perBankWrBursts::1            9                       # Per bank write bursts (Count)
system.mem_ctrls.dram.perBankWrBursts::2            0                       # Per bank write bursts (Count)
system.mem_ctrls.dram.perBankWrBursts::3           12                       # Per bank write bursts (Count)
system.mem_ctrls.dram.perBankWrBursts::4            5                       # Per bank write bursts (Count)
system.mem_ctrls.dram.perBankWrBursts::5           38                       # Per bank write bursts (Count)
system.mem_ctrls.dram.perBankWrBursts::6           20                       # Per bank write bursts (Count)
system.mem_ctrls.dram.perBankWrBursts::7           12                       # Per bank write bursts (Count)
system.mem_ctrls.dram.perBankWrBursts::8           12                       # Per bank write bursts (Count)
system.mem_ctrls.dram.perBankWrBursts::9            3                       # Per bank write bursts (Count)
system.mem_ctrls.dram.perBankWrBursts::10            0                       # Per bank write bursts (Count)
system.mem_ctrls.dram.perBankWrBursts::11           22                       # Per bank write bursts (Count)
system.mem_ctrls.dram.perBankWrBursts::12            7                       # Per bank write bursts (Count)
system.mem_ctrls.dram.perBankWrBursts::13           39                       # Per bank write bursts (Count)
system.mem_ctrls.dram.perBankWrBursts::14            0                       # Per bank write bursts (Count)
system.mem_ctrls.dram.perBankWrBursts::15            0                       # Per bank write bursts (Count)
system.mem_ctrls.dram.totQLat                19166750                       # Total ticks spent queuing (Tick)
system.mem_ctrls.dram.totBusLat               8765000                       # Total ticks spent in databus transfers (Tick)
system.mem_ctrls.dram.totMemAccLat           52035500                       # Total ticks spent from burst creation until serviced by the DRAM (Tick)
system.mem_ctrls.dram.avgQLat                10933.69                       # Average queueing delay per DRAM burst ((Tick/Count))
system.mem_ctrls.dram.avgBusLat               5000.00                       # Average bus latency per DRAM burst ((Tick/Count))
system.mem_ctrls.dram.avgMemAccLat           29683.69                       # Average memory access latency per DRAM burst ((Tick/Count))
system.mem_ctrls.dram.readRowHits                1064                       # Number of row buffer hits during reads (Count)
system.mem_ctrls.dram.writeRowHits                158                       # Number of row buffer hits during writes (Count)
system.mem_ctrls.dram.readRowHitRate            60.70                       # Row buffer hit rate for reads (Ratio)
system.mem_ctrls.dram.writeRowHitRate           84.04                       # Row buffer hit rate for writes (Ratio)
system.mem_ctrls.dram.bytesPerActivate::samples          711                       # Bytes accessed per row activation (Byte)
system.mem_ctrls.dram.bytesPerActivate::mean   172.376934                       # Bytes accessed per row activation (Byte)
system.mem_ctrls.dram.bytesPerActivate::gmean   133.734968                       # Bytes accessed per row activation (Byte)
system.mem_ctrls.dram.bytesPerActivate::stdev   176.846663                       # Bytes accessed per row activation (Byte)
system.mem_ctrls.dram.bytesPerActivate::0-127          176     24.75%     24.75% # Bytes accessed per row activation (Byte)
system.mem_ctrls.dram.bytesPerActivate::128-255          458     64.42%     89.17% # Bytes accessed per row activation (Byte)
system.mem_ctrls.dram.bytesPerActivate::256-383           17      2.39%     91.56% # Bytes accessed per row activation (Byte)
system.mem_ctrls.dram.bytesPerActivate::384-511           16      2.25%     93.81% # Bytes accessed per row activation (Byte)
system.mem_ctrls.dram.bytesPerActivate::512-639           12      1.69%     95.50% # Bytes accessed per row activation (Byte)
system.mem_ctrls.dram.bytesPerActivate::640-767           10      1.41%     96.91% # Bytes accessed per row activation (Byte)
system.mem_ctrls.dram.bytesPerActivate::768-895            5      0.70%     97.61% # Bytes accessed per row activation (Byte)
system.mem_ctrls.dram.bytesPerActivate::1024-1151           17      2.39%    100.00% # Bytes accessed per row activation (Byte)
system.mem_ctrls.dram.bytesPerActivate::total          711                       # Bytes accessed per row activation (Byte)
system.mem_ctrls.dram.bytesRead                112192                       # Total bytes read (Byte)
system.mem_ctrls.dram.bytesWritten              12032                       # Total bytes written (Byte)
system.mem_ctrls.dram.avgRdBW               36.547387                       # Average DRAM read bandwidth in MiBytes/s ((Byte/Second))
system.mem_ctrls.dram.avgWrBW                3.919514                       # Average DRAM write bandwidth in MiBytes/s ((Byte/Second))
system.mem_ctrls.dram.peakBW                 12800.00                       # Theoretical peak bandwidth in MiByte/s ((Byte/Second))
system.mem_ctrls.dram.busUtil                    0.32                       # Data bus utilization in percentage (Ratio)
system.mem_ctrls.dram.busUtilRead                0.29                       # Data bus utilization in percentage for reads (Ratio)
system.mem_ctrls.dram.busUtilWrite               0.03                       # Data bus utilization in percentage for writes (Ratio)
system.mem_ctrls.dram.pageHitRate               62.96                       # Row buffer hit rate, read and write combined (Ratio)
system.mem_ctrls.dram.power_state.pwrStateResidencyTicks::UNDEFINED   3069768000                       # Cumulative time (in ticks) in various power states (Tick)
system.mem_ctrls.dram.rank0.actEnergy         3098760                       # Energy for activate commands per rank (pJ) (Joule)
system.mem_ctrls.dram.rank0.preEnergy         1631850                       # Energy for precharge commands per rank (pJ) (Joule)
system.mem_ctrls.dram.rank0.readEnergy        7232820                       # Energy for read commands per rank (pJ) (Joule)
system.mem_ctrls.dram.rank0.writeEnergy        548100                       # Energy for write commands per rank (pJ) (Joule)
system.mem_ctrls.dram.rank0.refreshEnergy 242168160.000000                       # Energy for refresh commands per rank (pJ) (Joule)
system.mem_ctrls.dram.rank0.actBackEnergy    728558610                       # Energy for active background per rank (pJ) (Joule)
system.mem_ctrls.dram.rank0.preBackEnergy    565268160                       # Energy for precharge background per rank (pJ) (Joule)
system.mem_ctrls.dram.rank0.actPowerDownEnergy            0                       # Energy for active power-down per rank (pJ) (Joule)
system.mem_ctrls.dram.rank0.prePowerDownEnergy            0                       # Energy for precharge power-down per rank (pJ) (Joule)
system.mem_ctrls.dram.rank0.selfRefreshEnergy            0                       # Energy for self refresh per rank (pJ) (Joule)
system.mem_ctrls.dram.rank0.totalEnergy    1548506460                       # Total energy per rank (pJ) (Joule)
system.mem_ctrls.dram.rank0.averagePower   504.437619                       # Core power per rank (mW) (Watt)
system.mem_ctrls.dram.rank0.totalIdleTime            0                       # Total Idle time Per DRAM Rank (Tick)
system.mem_ctrls.dram.rank0.pwrStateTime::IDLE   1462722250                       # Time in different power states (Tick)
system.mem_ctrls.dram.rank0.pwrStateTime::REF    102440000                       # Time in different power states (Tick)
system.mem_ctrls.dram.rank0.pwrStateTime::SREF            0                       # Time in different power states (Tick)
system.mem_ctrls.dram.rank0.pwrStateTime::PRE_PDN            0                       # Time in different power states (Tick)
system.mem_ctrls.dram.rank0.pwrStateTime::ACT   1504605750                       # Time in different power states (Tick)
system.mem_ctrls.dram.rank0.pwrStateTime::ACT_PDN            0                       # Time in different power states (Tick)
system.mem_ctrls.dram.rank1.actEnergy         2034900                       # Energy for activate commands per rank (pJ) (Joule)
system.mem_ctrls.dram.rank1.preEnergy         1066395                       # Energy for precharge commands per rank (pJ) (Joule)
system.mem_ctrls.dram.rank1.readEnergy        5276460                       # Energy for read commands per rank (pJ) (Joule)
system.mem_ctrls.dram.rank1.writeEnergy        433260                       # Energy for write commands per rank (pJ) (Joule)
system.mem_ctrls.dram.rank1.refreshEnergy 242168160.000000                       # Energy for refresh commands per rank (pJ) (Joule)
system.mem_ctrls.dram.rank1.actBackEnergy    572557590                       # Energy for active background per rank (pJ) (Joule)
system.mem_ctrls.dram.rank1.preBackEnergy    696637440                       # Energy for precharge background per rank (pJ) (Joule)
system.mem_ctrls.dram.rank1.actPowerDownEnergy            0                       # Energy for active power-down per rank (pJ) (Joule)
system.mem_ctrls.dram.rank1.prePowerDownEnergy            0                       # Energy for precharge power-down per rank (pJ) (Joule)
system.mem_ctrls.dram.rank1.selfRefreshEnergy            0                       # Energy for self refresh per rank (pJ) (Joule)
system.mem_ctrls.dram.rank1.totalEnergy    1520174205                       # Total energy per rank (pJ) (Joule)
system.mem_ctrls.dram.rank1.averagePower   495.208174                       # Core power per rank (mW) (Watt)
system.mem_ctrls.dram.rank1.totalIdleTime            0                       # Total Idle time Per DRAM Rank (Tick)
system.mem_ctrls.dram.rank1.pwrStateTime::IDLE   1805787750                       # Time in different power states (Tick)
system.mem_ctrls.dram.rank1.pwrStateTime::REF    102440000                       # Time in different power states (Tick)
system.mem_ctrls.dram.rank1.pwrStateTime::SREF            0                       # Time in different power states (Tick)
system.mem_ctrls.dram.rank1.pwrStateTime::PRE_PDN            0                       # Time in different power states (Tick)
system.mem_ctrls.dram.rank1.pwrStateTime::ACT   1161540250                       # Time in different power states (Tick)
system.mem_ctrls.dram.rank1.pwrStateTime::ACT_PDN            0                       # Time in different power states (Tick)
system.mem_ctrls.power_state.pwrStateResidencyTicks::UNDEFINED   3069768000                       # Cumulative time (in ticks) in various power states (Tick)
system.membus.transDist::ReadResp                1137                       # Transaction distribution (Count)
system.membus.transDist::WritebackDirty           183                       # Transaction distribution (Count)
system.membus.transDist::WritebackClean            33                       # Transaction distribution (Count)
system.membus.transDist::CleanEvict                75                       # Transaction distribution (Count)
system.membus.transDist::ReadExReq                629                       # Transaction distribution (Count)
system.membus.transDist::ReadExResp               629                       # Transaction distribution (Count)
system.membus.transDist::ReadCleanReq             485                       # Transaction distribution (Count)
system.membus.transDist::ReadSharedReq            653                       # Transaction distribution (Count)
system.membus.pktCount_system.cpu.icache.mem_side_port::system.mem_ctrls.port         1002                       # Packet count per connected requestor and responder (Count)
system.membus.pktCount_system.cpu.icache.mem_side_port::total         1002                       # Packet count per connected requestor and responder (Count)
system.membus.pktCount_system.cpu.dcache.mem_side_port::system.mem_ctrls.port         2822                       # Packet count per connected requestor and responder (Count)
system.membus.pktCount_system.cpu.dcache.mem_side_port::total         2822                       # Packet count per connected requestor and responder (Count)
system.membus.pktCount::total                    3824                       # Packet count per connected requestor and responder (Count)
system.membus.pktSize_system.cpu.icache.mem_side_port::system.mem_ctrls.port        33088                       # Cumulative packet size per connected requestor and responder (Byte)
system.membus.pktSize_system.cpu.icache.mem_side_port::total        33088                       # Cumulative packet size per connected requestor and responder (Byte)
system.membus.pktSize_system.cpu.dcache.mem_side_port::system.mem_ctrls.port        93760                       # Cumulative packet size per connected requestor and responder (Byte)
system.membus.pktSize_system.cpu.dcache.mem_side_port::total        93760                       # Cumulative packet size per connected requestor and responder (Byte)
system.membus.pktSize::total                   126848                       # Cumulative packet size per connected requestor and responder (Byte)
system.membus.snoops                                0                       # Total snoops (Count)
system.membus.snoopTraffic                          0                       # Total snoop traffic (Byte)
system.membus.snoopFanout::samples               1767                       # Request fanout histogram (Count)
system.membus.snoopFanout::mean                     0                       # Request fanout histogram (Count)
system.membus.snoopFanout::stdev                    0                       # Request fanout histogram (Count)
system.membus.snoopFanout::underflows               0      0.00%      0.00% # Request fanout histogram (Count)
system.membus.snoopFanout::0                     1767    100.00%    100.00% # Request fanout histogram (Count)
system.membus.snoopFanout::1                        0      0.00%    100.00% # Request fanout histogram (Count)
system.membus.snoopFanout::2                        0      0.00%    100.00% # Request fanout histogram (Count)
system.membus.snoopFanout::3                        0      0.00%    100.00% # Request fanout histogram (Count)
system.membus.snoopFanout::4                        0      0.00%    100.00% # Request fanout histogram (Count)
system.membus.snoopFanout::overflows                0      0.00%    100.00% # Request fanout histogram (Count)
system.membus.snoopFanout::min_value                0                       # Request fanout histogram (Count)
system.membus.snoopFanout::max_value                0                       # Request fanout histogram (Count)
system.membus.snoopFanout::total                 1767                       # Request fanout histogram (Count)
system.membus.power_state.pwrStateResidencyTicks::UNDEFINED   3069768000                       # Cumulative time (in ticks) in various power states (Tick)
system.membus.reqLayer2.occupancy             2922000                       # Layer occupancy (ticks) (Tick)
system.membus.reqLayer2.utilization               0.0                       # Layer utilization (Ratio)
system.membus.respLayer1.occupancy            2570250                       # Layer occupancy (ticks) (Tick)
system.membus.respLayer1.utilization              0.0                       # Layer utilization (Ratio)
system.membus.respLayer2.occupancy            6872500                       # Layer occupancy (ticks) (Tick)
system.membus.respLayer2.utilization              0.0                       # Layer utilization (Ratio)
system.membus.snoop_filter.totRequests           2058                       # Total number of requests made to the snoop filter. (Count)
system.membus.snoop_filter.hitSingleRequests          291                       # Number of requests hitting in the snoop filter with a single holder of the requested data. (Count)
system.membus.snoop_filter.hitMultiRequests            0                       # Number of requests hitting in the snoop filter with multiple (>1) holders of the requested data. (Count)
system.membus.snoop_filter.totSnoops                0                       # Total number of snoops made to the snoop filter. (Count)
system.membus.snoop_filter.hitSingleSnoops            0                       # Number of snoops hitting in the snoop filter with a single holder of the requested data. (Count)
system.membus.snoop_filter.hitMultiSnoops            0                       # Number of snoops hitting in the snoop filter with multiple (>1) holders of the requested data. (Count)
system.voltage_domain.voltage                       1                       # Voltage in Volts (Volt)
system.workload.inst.arm                            0                       # number of arm instructions executed (Count)
system.workload.inst.quiesce                        0                       # number of quiesce instructions executed (Count)

---------- End Simulation Statistics   ----------
