
---------- Begin Simulation Statistics ----------
simSeconds                                   0.001749                       # Number of seconds simulated (Second)
simTicks                                   1748657500                       # Number of ticks simulated (Tick)
finalTick                                  1748657500                       # Number of ticks from beginning of simulation (restored from checkpoints and never reset) (Tick)
simFreq                                  1000000000000                       # The number of ticks per simulated second ((Tick/Second))
hostSeconds                                     26.09                       # Real time elapsed on the host (Second)
hostTickRate                                 67020067                       # The number of ticks simulated per host second (ticks/s) ((Tick/Second))
hostMemory                                     662652                       # Number of bytes of host memory used (Byte)
simInsts                                      8104252                       # Number of instructions simulated (Count)
simOps                                       14470791                       # Number of ops (including micro ops) simulated (Count)
hostInstRate                                   310606                       # Simulator instruction rate (inst/s) ((Count/Second))
hostOpRate                                     554612                       # Simulator op (including micro ops) rate (op/s) ((Count/Second))
system.clk_domain.clock                           500                       # Clock period in ticks (Tick)
system.cpu.numCycles                          3497316                       # Number of cpu cycles simulated (Cycle)
system.cpu.numWorkItemsStarted                      0                       # Number of work items this cpu started (Count)
system.cpu.numWorkItemsCompleted                    0                       # Number of work items this cpu completed (Count)
system.cpu.instsAdded                        14488160                       # Number of instructions added to the IQ (excludes non-spec) (Count)
system.cpu.nonSpecInstsAdded                        1                       # Number of non-speculative instructions added to the IQ (Count)
system.cpu.instsIssued                       14497791                       # Number of instructions issued (Count)
system.cpu.squashedInstsIssued                    587                       # Number of squashed instructions issued (Count)
system.cpu.squashedInstsExamined                17364                       # Number of squashed instructions iterated over during squash; mainly for profiling (Count)
system.cpu.squashedOperandsExamined             17356                       # Number of squashed operands that are examined and possibly removed from graph (Count)
system.cpu.squashedNonSpecRemoved                   1                       # Number of squashed non-spec instructions that were removed (Count)
system.cpu.numIssuedDist::samples             3464481                       # Number of insts issued each cycle (Count)
system.cpu.numIssuedDist::mean               4.184693                       # Number of insts issued each cycle (Count)
system.cpu.numIssuedDist::stdev              2.633941                       # Number of insts issued each cycle (Count)
system.cpu.numIssuedDist::underflows                0      0.00%      0.00% # Number of insts issued each cycle (Count)
system.cpu.numIssuedDist::0                    553125     15.97%     15.97% # Number of insts issued each cycle (Count)
system.cpu.numIssuedDist::1                    119610      3.45%     19.42% # Number of insts issued each cycle (Count)
system.cpu.numIssuedDist::2                    545294     15.74%     35.16% # Number of insts issued each cycle (Count)
system.cpu.numIssuedDist::3                    131047      3.78%     38.94% # Number of insts issued each cycle (Count)
system.cpu.numIssuedDist::4                    161875      4.67%     43.61% # Number of insts issued each cycle (Count)
system.cpu.numIssuedDist::5                    388056     11.20%     54.81% # Number of insts issued each cycle (Count)
system.cpu.numIssuedDist::6                    999504     28.85%     83.66% # Number of insts issued each cycle (Count)
system.cpu.numIssuedDist::7                    218112      6.30%     89.96% # Number of insts issued each cycle (Count)
system.cpu.numIssuedDist::8                    347858     10.04%    100.00% # Number of insts issued each cycle (Count)
system.cpu.numIssuedDist::overflows                 0      0.00%    100.00% # Number of insts issued each cycle (Count)
system.cpu.numIssuedDist::min_value                 0                       # Number of insts issued each cycle (Count)
system.cpu.numIssuedDist::max_value                 8                       # Number of insts issued each cycle (Count)
system.cpu.numIssuedDist::total               3464481                       # Number of insts issued each cycle (Count)
system.cpu.statFuBusy::No_OpClass                   0      0.00%      0.00% # attempts to use FU when none available (Count)
system.cpu.statFuBusy::IntAlu                     170      0.09%      0.09% # attempts to use FU when none available (Count)
system.cpu.statFuBusy::IntMult                      0      0.00%      0.09% # attempts to use FU when none available (Count)
system.cpu.statFuBusy::IntDiv                       0      0.00%      0.09% # attempts to use FU when none available (Count)
system.cpu.statFuBusy::FloatAdd                 34180     18.05%     18.14% # attempts to use FU when none available (Count)
system.cpu.statFuBusy::FloatCmp                     0      0.00%     18.14% # attempts to use FU when none available (Count)
system.cpu.statFuBusy::FloatCvt                     0      0.00%     18.14% # attempts to use FU when none available (Count)
system.cpu.statFuBusy::FloatMult                    0      0.00%     18.14% # attempts to use FU when none available (Count)
system.cpu.statFuBusy::FloatMultAcc                 0      0.00%     18.14% # attempts to use FU when none available (Count)
system.cpu.statFuBusy::FloatDiv                     0      0.00%     18.14% # attempts to use FU when none available (Count)
system.cpu.statFuBusy::FloatMisc                    0      0.00%     18.14% # attempts to use FU when none available (Count)
system.cpu.statFuBusy::FloatSqrt                    0      0.00%     18.14% # attempts to use FU when none available (Count)
system.cpu.statFuBusy::SimdAdd                      0      0.00%     18.14% # attempts to use FU when none available (Count)
system.cpu.statFuBusy::SimdAddAcc                   0      0.00%     18.14% # attempts to use FU when none available (Count)
system.cpu.statFuBusy::SimdAlu                     11      0.01%     18.14% # attempts to use FU when none available (Count)
system.cpu.statFuBusy::SimdCmp                      0      0.00%     18.14% # attempts to use FU when none available (Count)
system.cpu.statFuBusy::SimdCvt                      1      0.00%     18.14% # attempts to use FU when none available (Count)
system.cpu.statFuBusy::SimdMisc                  1156      0.61%     18.75% # attempts to use FU when none available (Count)
system.cpu.statFuBusy::SimdMult                     0      0.00%     18.75% # attempts to use FU when none available (Count)
system.cpu.statFuBusy::SimdMultAcc                  0      0.00%     18.75% # attempts to use FU when none available (Count)
system.cpu.statFuBusy::SimdShift                    0      0.00%     18.75% # attempts to use FU when none available (Count)
system.cpu.statFuBusy::SimdShiftAcc                 0      0.00%     18.75% # attempts to use FU when none available (Count)
system.cpu.statFuBusy::SimdDiv                      0      0.00%     18.75% # attempts to use FU when none available (Count)
system.cpu.statFuBusy::SimdSqrt                     0      0.00%     18.75% # attempts to use FU when none available (Count)
system.cpu.statFuBusy::SimdFloatAdd             22912     12.10%     30.85% # attempts to use FU when none available (Count)
system.cpu.statFuBusy::SimdFloatAlu                 0      0.00%     30.85% # attempts to use FU when none available (Count)
system.cpu.statFuBusy::SimdFloatCmp                 0      0.00%     30.85% # attempts to use FU when none available (Count)
system.cpu.statFuBusy::SimdFloatCvt                 0      0.00%     30.85% # attempts to use FU when none available (Count)
system.cpu.statFuBusy::SimdFloatDiv                 0      0.00%     30.85% # attempts to use FU when none available (Count)
system.cpu.statFuBusy::SimdFloatMisc                0      0.00%     30.85% # attempts to use FU when none available (Count)
system.cpu.statFuBusy::SimdFloatMult           128672     67.93%     98.78% # attempts to use FU when none available (Count)
system.cpu.statFuBusy::SimdFloatMultAcc             0      0.00%     98.78% # attempts to use FU when none available (Count)
system.cpu.statFuBusy::SimdFloatSqrt                0      0.00%     98.78% # attempts to use FU when none available (Count)
system.cpu.statFuBusy::SimdReduceAdd                0      0.00%     98.78% # attempts to use FU when none available (Count)
system.cpu.statFuBusy::SimdReduceAlu                0      0.00%     98.78% # attempts to use FU when none available (Count)
system.cpu.statFuBusy::SimdReduceCmp                0      0.00%     98.78% # attempts to use FU when none available (Count)
system.cpu.statFuBusy::SimdFloatReduceAdd            0      0.00%     98.78% # attempts to use FU when none available (Count)
system.cpu.statFuBusy::SimdFloatReduceCmp            0      0.00%     98.78% # attempts to use FU when none available (Count)
system.cpu.statFuBusy::SimdAes                      0      0.00%     98.78% # attempts to use FU when none available (Count)
system.cpu.statFuBusy::SimdAesMix                   0      0.00%     98.78% # attempts to use FU when none available (Count)
system.cpu.statFuBusy::SimdSha1Hash                 0      0.00%     98.78% # attempts to use FU when none available (Count)
system.cpu.statFuBusy::SimdSha1Hash2                0      0.00%     98.78% # attempts to use FU when none available (Count)
system.cpu.statFuBusy::SimdSha256Hash               0      0.00%     98.78% # attempts to use FU when none available (Count)
system.cpu.statFuBusy::SimdSha256Hash2              0      0.00%     98.78% # attempts to use FU when none available (Count)
system.cpu.statFuBusy::SimdShaSigma2                0      0.00%     98.78% # attempts to use FU when none available (Count)
system.cpu.statFuBusy::SimdShaSigma3                0      0.00%     98.78% # attempts to use FU when none available (Count)
system.cpu.statFuBusy::SimdPredAlu                  0      0.00%     98.78% # attempts to use FU when none available (Count)
system.cpu.statFuBusy::MemRead                     28      0.01%     98.80% # attempts to use FU when none available (Count)
system.cpu.statFuBusy::MemWrite                    22      0.01%     98.81% # attempts to use FU when none available (Count)
system.cpu.statFuBusy::FloatMemRead              2224      1.17%     99.98% # attempts to use FU when none available (Count)
system.cpu.statFuBusy::FloatMemWrite               35      0.02%    100.00% # attempts to use FU when none available (Count)
system.cpu.statFuBusy::IprAccess                    0      0.00%    100.00% # attempts to use FU when none available (Count)
system.cpu.statFuBusy::InstPrefetch                 0      0.00%    100.00% # attempts to use FU when none available (Count)
system.cpu.statIssuedInstType_0::No_OpClass          917      0.01%      0.01% # Number of instructions issued per FU type, per thread (Count)
system.cpu.statIssuedInstType_0::IntAlu       2547054     17.57%     17.57% # Number of instructions issued per FU type, per thread (Count)
system.cpu.statIssuedInstType_0::IntMult            6      0.00%     17.57% # Number of instructions issued per FU type, per thread (Count)
system.cpu.statIssuedInstType_0::IntDiv            28      0.00%     17.58% # Number of instructions issued per FU type, per thread (Count)
system.cpu.statIssuedInstType_0::FloatAdd      4721027     32.56%     50.14% # Number of instructions issued per FU type, per thread (Count)
system.cpu.statIssuedInstType_0::FloatCmp            0      0.00%     50.14% # Number of instructions issued per FU type, per thread (Count)
system.cpu.statIssuedInstType_0::FloatCvt            0      0.00%     50.14% # Number of instructions issued per FU type, per thread (Count)
system.cpu.statIssuedInstType_0::FloatMult            0      0.00%     50.14% # Number of instructions issued per FU type, per thread (Count)
system.cpu.statIssuedInstType_0::FloatMultAcc            0      0.00%     50.14% # Number of instructions issued per FU type, per thread (Count)
system.cpu.statIssuedInstType_0::FloatDiv            0      0.00%     50.14% # Number of instructions issued per FU type, per thread (Count)
system.cpu.statIssuedInstType_0::FloatMisc            0      0.00%     50.14% # Number of instructions issued per FU type, per thread (Count)
system.cpu.statIssuedInstType_0::FloatSqrt            0      0.00%     50.14% # Number of instructions issued per FU type, per thread (Count)
system.cpu.statIssuedInstType_0::SimdAdd            0      0.00%     50.14% # Number of instructions issued per FU type, per thread (Count)
system.cpu.statIssuedInstType_0::SimdAddAcc            0      0.00%     50.14% # Number of instructions issued per FU type, per thread (Count)
system.cpu.statIssuedInstType_0::SimdAlu          166      0.00%     50.14% # Number of instructions issued per FU type, per thread (Count)
system.cpu.statIssuedInstType_0::SimdCmp            0      0.00%     50.14% # Number of instructions issued per FU type, per thread (Count)
system.cpu.statIssuedInstType_0::SimdCvt           48      0.00%     50.14% # Number of instructions issued per FU type, per thread (Count)
system.cpu.statIssuedInstType_0::SimdMisc       262374      1.81%     51.95% # Number of instructions issued per FU type, per thread (Count)
system.cpu.statIssuedInstType_0::SimdMult            0      0.00%     51.95% # Number of instructions issued per FU type, per thread (Count)
system.cpu.statIssuedInstType_0::SimdMultAcc            0      0.00%     51.95% # Number of instructions issued per FU type, per thread (Count)
system.cpu.statIssuedInstType_0::SimdShift            0      0.00%     51.95% # Number of instructions issued per FU type, per thread (Count)
system.cpu.statIssuedInstType_0::SimdShiftAcc            0      0.00%     51.95% # Number of instructions issued per FU type, per thread (Count)
system.cpu.statIssuedInstType_0::SimdDiv            0      0.00%     51.95% # Number of instructions issued per FU type, per thread (Count)
system.cpu.statIssuedInstType_0::SimdSqrt            0      0.00%     51.95% # Number of instructions issued per FU type, per thread (Count)
system.cpu.statIssuedInstType_0::SimdFloatAdd      2097152     14.47%     66.42% # Number of instructions issued per FU type, per thread (Count)
system.cpu.statIssuedInstType_0::SimdFloatAlu            0      0.00%     66.42% # Number of instructions issued per FU type, per thread (Count)
system.cpu.statIssuedInstType_0::SimdFloatCmp            0      0.00%     66.42% # Number of instructions issued per FU type, per thread (Count)
system.cpu.statIssuedInstType_0::SimdFloatCvt            1      0.00%     66.42% # Number of instructions issued per FU type, per thread (Count)
system.cpu.statIssuedInstType_0::SimdFloatDiv            0      0.00%     66.42% # Number of instructions issued per FU type, per thread (Count)
system.cpu.statIssuedInstType_0::SimdFloatMisc            0      0.00%     66.42% # Number of instructions issued per FU type, per thread (Count)
system.cpu.statIssuedInstType_0::SimdFloatMult      2097152     14.47%     80.88% # Number of instructions issued per FU type, per thread (Count)
system.cpu.statIssuedInstType_0::SimdFloatMultAcc            0      0.00%     80.88% # Number of instructions issued per FU type, per thread (Count)
system.cpu.statIssuedInstType_0::SimdFloatSqrt            0      0.00%     80.88% # Number of instructions issued per FU type, per thread (Count)
system.cpu.statIssuedInstType_0::SimdReduceAdd            0      0.00%     80.88% # Number of instructions issued per FU type, per thread (Count)
system.cpu.statIssuedInstType_0::SimdReduceAlu            0      0.00%     80.88% # Number of instructions issued per FU type, per thread (Count)
system.cpu.statIssuedInstType_0::SimdReduceCmp            0      0.00%     80.88% # Number of instructions issued per FU type, per thread (Count)
system.cpu.statIssuedInstType_0::SimdFloatReduceAdd            0      0.00%     80.88% # Number of instructions issued per FU type, per thread (Count)
system.cpu.statIssuedInstType_0::SimdFloatReduceCmp            0      0.00%     80.88% # Number of instructions issued per FU type, per thread (Count)
system.cpu.statIssuedInstType_0::SimdAes            0      0.00%     80.88% # Number of instructions issued per FU type, per thread (Count)
system.cpu.statIssuedInstType_0::SimdAesMix            0      0.00%     80.88% # Number of instructions issued per FU type, per thread (Count)
system.cpu.statIssuedInstType_0::SimdSha1Hash            0      0.00%     80.88% # Number of instructions issued per FU type, per thread (Count)
system.cpu.statIssuedInstType_0::SimdSha1Hash2            0      0.00%     80.88% # Number of instructions issued per FU type, per thread (Count)
system.cpu.statIssuedInstType_0::SimdSha256Hash            0      0.00%     80.88% # Number of instructions issued per FU type, per thread (Count)
system.cpu.statIssuedInstType_0::SimdSha256Hash2            0      0.00%     80.88% # Number of instructions issued per FU type, per thread (Count)
system.cpu.statIssuedInstType_0::SimdShaSigma2            0      0.00%     80.88% # Number of instructions issued per FU type, per thread (Count)
system.cpu.statIssuedInstType_0::SimdShaSigma3            0      0.00%     80.88% # Number of instructions issued per FU type, per thread (Count)
system.cpu.statIssuedInstType_0::SimdPredAlu            0      0.00%     80.88% # Number of instructions issued per FU type, per thread (Count)
system.cpu.statIssuedInstType_0::MemRead         2762      0.02%     80.90% # Number of instructions issued per FU type, per thread (Count)
system.cpu.statIssuedInstType_0::MemWrite         1726      0.01%     80.91% # Number of instructions issued per FU type, per thread (Count)
system.cpu.statIssuedInstType_0::FloatMemRead      2635749     18.18%     99.09% # Number of instructions issued per FU type, per thread (Count)
system.cpu.statIssuedInstType_0::FloatMemWrite       131629      0.91%    100.00% # Number of instructions issued per FU type, per thread (Count)
system.cpu.statIssuedInstType_0::IprAccess            0      0.00%    100.00% # Number of instructions issued per FU type, per thread (Count)
system.cpu.statIssuedInstType_0::InstPrefetch            0      0.00%    100.00% # Number of instructions issued per FU type, per thread (Count)
system.cpu.statIssuedInstType_0::total       14497791                       # Number of instructions issued per FU type, per thread (Count)
system.cpu.issueRate                         4.145405                       # Inst issue rate ((Count/Cycle))
system.cpu.fuBusy                              189411                       # FU busy when requested (Count)
system.cpu.fuBusyRate                        0.013065                       # FU busy rate (busy events/executed inst) ((Count/Count))
system.cpu.intInstQueueReads                  8438358                       # Number of integer instruction queue reads (Count)
system.cpu.intInstQueueWrites                 2502516                       # Number of integer instruction queue writes (Count)
system.cpu.intInstQueueWakeupAccesses         2485196                       # Number of integer instruction queue wakeup accesses (Count)
system.cpu.fpInstQueueReads                  24211703                       # Number of floating instruction queue reads (Count)
system.cpu.fpInstQueueWrites                 12003021                       # Number of floating instruction queue writes (Count)
system.cpu.fpInstQueueWakeupAccesses         11995599                       # Number of floating instruction queue wakeup accesses (Count)
system.cpu.vecInstQueueReads                        0                       # Number of vector instruction queue reads (Count)
system.cpu.vecInstQueueWrites                       0                       # Number of vector instruction queue writes (Count)
system.cpu.vecInstQueueWakeupAccesses               0                       # Number of vector instruction queue wakeup accesses (Count)
system.cpu.intAluAccesses                     2486119                       # Number of integer alu accesses (Count)
system.cpu.fpAluAccesses                     12200166                       # Number of floating point alu accesses (Count)
system.cpu.vecAluAccesses                           0                       # Number of vector alu accesses (Count)
system.cpu.numInsts                          14495188                       # Number of executed instructions (Count)
system.cpu.numLoadInsts                       2637811                       # Number of load instructions executed (Count)
system.cpu.numSquashedInsts                      2603                       # Number of squashed instructions skipped in execute (Count)
system.cpu.numSwp                                   0                       # Number of swp insts executed (Count)
system.cpu.numNop                                   0                       # Number of nop insts executed (Count)
system.cpu.numRefs                            2771063                       # Number of memory reference insts executed (Count)
system.cpu.numBranches                         297548                       # Number of branches executed (Count)
system.cpu.numStoreInsts                       133252                       # Number of stores executed (Count)
system.cpu.numRate                           4.144661                       # Inst execution rate ((Count/Cycle))
system.cpu.timesIdled                             318                       # Number of times that the entire CPU went into an idle state and unscheduled itself (Count)
system.cpu.idleCycles                           32835                       # Total number of cycles that the CPU has spent unscheduled due to idling (Cycle)
system.cpu.committedInsts                     8104252                       # Number of Instructions Simulated (Count)
system.cpu.committedOps                      14470791                       # Number of Ops (including micro ops) Simulated (Count)
system.cpu.cpi                               0.431541                       # CPI: Cycles Per Instruction ((Cycle/Count))
system.cpu.totalCpi                          0.431541                       # CPI: Total CPI of All Threads ((Cycle/Count))
system.cpu.ipc                               2.317278                       # IPC: Instructions Per Cycle ((Count/Cycle))
system.cpu.totalIpc                          2.317278                       # IPC: Total IPC of All Threads ((Count/Cycle))
system.cpu.intRegfileReads                    8128387                       # Number of integer regfile reads (Count)
system.cpu.intRegfileWrites                   2152685                       # Number of integer regfile writes (Count)
system.cpu.fpRegfileReads                    13370938                       # Number of floating regfile reads (Count)
system.cpu.fpRegfileWrites                   11863961                       # Number of floating regfile writes (Count)
system.cpu.ccRegfileReads                     1486585                       # number of cc regfile reads (Count)
system.cpu.ccRegfileWrites                    1779153                       # number of cc regfile writes (Count)
system.cpu.miscRegfileReads                   3367120                       # number of misc regfile reads (Count)
system.cpu.MemDepUnit__0.insertedLoads        2625652                       # Number of loads inserted to the mem dependence unit. (Count)
system.cpu.MemDepUnit__0.insertedStores        133773                       # Number of stores inserted to the mem dependence unit. (Count)
system.cpu.MemDepUnit__0.conflictingLoads           25                       # Number of conflicting loads. (Count)
system.cpu.MemDepUnit__0.conflictingStores           12                       # Number of conflicting stores. (Count)
system.cpu.MemDepUnit__1.insertedLoads              0                       # Number of loads inserted to the mem dependence unit. (Count)
system.cpu.MemDepUnit__1.insertedStores             0                       # Number of stores inserted to the mem dependence unit. (Count)
system.cpu.MemDepUnit__1.conflictingLoads            0                       # Number of conflicting loads. (Count)
system.cpu.MemDepUnit__1.conflictingStores            0                       # Number of conflicting stores. (Count)
system.cpu.MemDepUnit__2.insertedLoads              0                       # Number of loads inserted to the mem dependence unit. (Count)
system.cpu.MemDepUnit__2.insertedStores             0                       # Number of stores inserted to the mem dependence unit. (Count)
system.cpu.MemDepUnit__2.conflictingLoads            0                       # Number of conflicting loads. (Count)
system.cpu.MemDepUnit__2.conflictingStores            0                       # Number of conflicting stores. (Count)
system.cpu.MemDepUnit__3.insertedLoads              0                       # Number of loads inserted to the mem dependence unit. (Count)
system.cpu.MemDepUnit__3.insertedStores             0                       # Number of stores inserted to the mem dependence unit. (Count)
system.cpu.MemDepUnit__3.conflictingLoads            0                       # Number of conflicting loads. (Count)
system.cpu.MemDepUnit__3.conflictingStores            0                       # Number of conflicting stores. (Count)
system.cpu.branchPred.lookups                  299074                       # Number of BP lookups (Count)
system.cpu.branchPred.condPredicted            297859                       # Number of conditional branches predicted (Count)
system.cpu.branchPred.condIncorrect               984                       # Number of conditional branches incorrect (Count)
system.cpu.branchPred.BTBLookups               264152                       # Number of BTB lookups (Count)
system.cpu.branchPred.BTBHits                  263429                       # Number of BTB hits (Count)
system.cpu.branchPred.BTBHitRatio            0.997263                       # BTB Hit Ratio (Ratio)
system.cpu.branchPred.RASUsed                     292                       # Number of times the RAS was used to get a target. (Count)
system.cpu.branchPred.RASIncorrect                  0                       # Number of incorrect RAS predictions. (Count)
system.cpu.branchPred.indirectLookups             304                       # Number of indirect predictor lookups. (Count)
system.cpu.branchPred.indirectHits                 14                       # Number of indirect target hits. (Count)
system.cpu.branchPred.indirectMisses              290                       # Number of indirect misses. (Count)
system.cpu.branchPred.indirectMispredicted           92                       # Number of mispredicted indirect branches. (Count)
system.cpu.commit.commitSquashedInsts           17195                       # The number of squashed insts skipped by commit (Count)
system.cpu.commit.branchMispredicts               871                       # The number of times a branch was mispredicted (Count)
system.cpu.commit.numCommittedDist::samples      3461879                       # Number of insts commited each cycle (Count)
system.cpu.commit.numCommittedDist::mean     4.180040                       # Number of insts commited each cycle (Count)
system.cpu.commit.numCommittedDist::stdev     2.995942                       # Number of insts commited each cycle (Count)
system.cpu.commit.numCommittedDist::underflows            0      0.00%      0.00% # Number of insts commited each cycle (Count)
system.cpu.commit.numCommittedDist::0          727615     21.02%     21.02% # Number of insts commited each cycle (Count)
system.cpu.commit.numCommittedDist::1          211507      6.11%     27.13% # Number of insts commited each cycle (Count)
system.cpu.commit.numCommittedDist::2          308734      8.92%     36.05% # Number of insts commited each cycle (Count)
system.cpu.commit.numCommittedDist::3           96117      2.78%     38.82% # Number of insts commited each cycle (Count)
system.cpu.commit.numCommittedDist::4          175397      5.07%     43.89% # Number of insts commited each cycle (Count)
system.cpu.commit.numCommittedDist::5          901169     26.03%     69.92% # Number of insts commited each cycle (Count)
system.cpu.commit.numCommittedDist::6           19318      0.56%     70.48% # Number of insts commited each cycle (Count)
system.cpu.commit.numCommittedDist::7          146052      4.22%     74.70% # Number of insts commited each cycle (Count)
system.cpu.commit.numCommittedDist::8          875970     25.30%    100.00% # Number of insts commited each cycle (Count)
system.cpu.commit.numCommittedDist::overflows            0      0.00%    100.00% # Number of insts commited each cycle (Count)
system.cpu.commit.numCommittedDist::min_value            0                       # Number of insts commited each cycle (Count)
system.cpu.commit.numCommittedDist::max_value            8                       # Number of insts commited each cycle (Count)
system.cpu.commit.numCommittedDist::total      3461879                       # Number of insts commited each cycle (Count)
system.cpu.commit.instsCommitted              8104252                       # Number of instructions committed (Count)
system.cpu.commit.opsCommitted               14470791                       # Number of ops (including micro ops) committed (Count)
system.cpu.commit.memRefs                     2755586                       # Number of memory references committed (Count)
system.cpu.commit.loads                       2622923                       # Number of loads committed (Count)
system.cpu.commit.amos                              0                       # Number of atomic instructions committed (Count)
system.cpu.commit.membars                           0                       # Number of memory barriers committed (Count)
system.cpu.commit.branches                     296838                       # Number of branches committed (Count)
system.cpu.commit.vectorInstructions                0                       # Number of committed Vector instructions. (Count)
system.cpu.commit.floating                   11994221                       # Number of committed floating point instructions. (Count)
system.cpu.commit.integer                     5196450                       # Number of committed integer instructions. (Count)
system.cpu.commit.functionCalls                   144                       # Number of function calls committed. (Count)
system.cpu.commit.committedInstType_0::No_OpClass          443      0.00%      0.00% # Class of committed instruction (Count)
system.cpu.commit.committedInstType_0::IntAlu      2539206     17.55%     17.55% # Class of committed instruction (Count)
system.cpu.commit.committedInstType_0::IntMult            5      0.00%     17.55% # Class of committed instruction (Count)
system.cpu.commit.committedInstType_0::IntDiv           21      0.00%     17.55% # Class of committed instruction (Count)
system.cpu.commit.committedInstType_0::FloatAdd      4718727     32.61%     50.16% # Class of committed instruction (Count)
system.cpu.commit.committedInstType_0::FloatCmp            0      0.00%     50.16% # Class of committed instruction (Count)
system.cpu.commit.committedInstType_0::FloatCvt            0      0.00%     50.16% # Class of committed instruction (Count)
system.cpu.commit.committedInstType_0::FloatMult            0      0.00%     50.16% # Class of committed instruction (Count)
system.cpu.commit.committedInstType_0::FloatMultAcc            0      0.00%     50.16% # Class of committed instruction (Count)
system.cpu.commit.committedInstType_0::FloatDiv            0      0.00%     50.16% # Class of committed instruction (Count)
system.cpu.commit.committedInstType_0::FloatMisc            0      0.00%     50.16% # Class of committed instruction (Count)
system.cpu.commit.committedInstType_0::FloatSqrt            0      0.00%     50.16% # Class of committed instruction (Count)
system.cpu.commit.committedInstType_0::SimdAdd            0      0.00%     50.16% # Class of committed instruction (Count)
system.cpu.commit.committedInstType_0::SimdAddAcc            0      0.00%     50.16% # Class of committed instruction (Count)
system.cpu.commit.committedInstType_0::SimdAlu           94      0.00%     50.16% # Class of committed instruction (Count)
system.cpu.commit.committedInstType_0::SimdCmp            0      0.00%     50.16% # Class of committed instruction (Count)
system.cpu.commit.committedInstType_0::SimdCvt           46      0.00%     50.16% # Class of committed instruction (Count)
system.cpu.commit.committedInstType_0::SimdMisc       262359      1.81%     51.97% # Class of committed instruction (Count)
system.cpu.commit.committedInstType_0::SimdMult            0      0.00%     51.97% # Class of committed instruction (Count)
system.cpu.commit.committedInstType_0::SimdMultAcc            0      0.00%     51.97% # Class of committed instruction (Count)
system.cpu.commit.committedInstType_0::SimdShift            0      0.00%     51.97% # Class of committed instruction (Count)
system.cpu.commit.committedInstType_0::SimdShiftAcc            0      0.00%     51.97% # Class of committed instruction (Count)
system.cpu.commit.committedInstType_0::SimdDiv            0      0.00%     51.97% # Class of committed instruction (Count)
system.cpu.commit.committedInstType_0::SimdSqrt            0      0.00%     51.97% # Class of committed instruction (Count)
system.cpu.commit.committedInstType_0::SimdFloatAdd      2097152     14.49%     66.47% # Class of committed instruction (Count)
system.cpu.commit.committedInstType_0::SimdFloatAlu            0      0.00%     66.47% # Class of committed instruction (Count)
system.cpu.commit.committedInstType_0::SimdFloatCmp            0      0.00%     66.47% # Class of committed instruction (Count)
system.cpu.commit.committedInstType_0::SimdFloatCvt            0      0.00%     66.47% # Class of committed instruction (Count)
system.cpu.commit.committedInstType_0::SimdFloatDiv            0      0.00%     66.47% # Class of committed instruction (Count)
system.cpu.commit.committedInstType_0::SimdFloatMisc            0      0.00%     66.47% # Class of committed instruction (Count)
system.cpu.commit.committedInstType_0::SimdFloatMult      2097152     14.49%     80.96% # Class of committed instruction (Count)
system.cpu.commit.committedInstType_0::SimdFloatMultAcc            0      0.00%     80.96% # Class of committed instruction (Count)
system.cpu.commit.committedInstType_0::SimdFloatSqrt            0      0.00%     80.96% # Class of committed instruction (Count)
system.cpu.commit.committedInstType_0::SimdReduceAdd            0      0.00%     80.96% # Class of committed instruction (Count)
system.cpu.commit.committedInstType_0::SimdReduceAlu            0      0.00%     80.96% # Class of committed instruction (Count)
system.cpu.commit.committedInstType_0::SimdReduceCmp            0      0.00%     80.96% # Class of committed instruction (Count)
system.cpu.commit.committedInstType_0::SimdFloatReduceAdd            0      0.00%     80.96% # Class of committed instruction (Count)
system.cpu.commit.committedInstType_0::SimdFloatReduceCmp            0      0.00%     80.96% # Class of committed instruction (Count)
system.cpu.commit.committedInstType_0::SimdAes            0      0.00%     80.96% # Class of committed instruction (Count)
system.cpu.commit.committedInstType_0::SimdAesMix            0      0.00%     80.96% # Class of committed instruction (Count)
system.cpu.commit.committedInstType_0::SimdSha1Hash            0      0.00%     80.96% # Class of committed instruction (Count)
system.cpu.commit.committedInstType_0::SimdSha1Hash2            0      0.00%     80.96% # Class of committed instruction (Count)
system.cpu.commit.committedInstType_0::SimdSha256Hash            0      0.00%     80.96% # Class of committed instruction (Count)
system.cpu.commit.committedInstType_0::SimdSha256Hash2            0      0.00%     80.96% # Class of committed instruction (Count)
system.cpu.commit.committedInstType_0::SimdShaSigma2            0      0.00%     80.96% # Class of committed instruction (Count)
system.cpu.commit.committedInstType_0::SimdShaSigma3            0      0.00%     80.96% # Class of committed instruction (Count)
system.cpu.commit.committedInstType_0::SimdPredAlu            0      0.00%     80.96% # Class of committed instruction (Count)
system.cpu.commit.committedInstType_0::MemRead         1437      0.01%     80.97% # Class of committed instruction (Count)
system.cpu.commit.committedInstType_0::MemWrite         1133      0.01%     80.98% # Class of committed instruction (Count)
system.cpu.commit.committedInstType_0::FloatMemRead      2621486     18.12%     99.09% # Class of committed instruction (Count)
system.cpu.commit.committedInstType_0::FloatMemWrite       131530      0.91%    100.00% # Class of committed instruction (Count)
system.cpu.commit.committedInstType_0::IprAccess            0      0.00%    100.00% # Class of committed instruction (Count)
system.cpu.commit.committedInstType_0::InstPrefetch            0      0.00%    100.00% # Class of committed instruction (Count)
system.cpu.commit.committedInstType_0::total     14470791                       # Class of committed instruction (Count)
system.cpu.commit.commitEligibleSamples        875970                       # number cycles where commit BW limit reached (Cycle)
system.cpu.dcache.demandHits::cpu.data        2729882                       # number of demand (read+write) hits (Count)
system.cpu.dcache.demandHits::total           2729882                       # number of demand (read+write) hits (Count)
system.cpu.dcache.overallHits::cpu.data       2729882                       # number of overall hits (Count)
system.cpu.dcache.overallHits::total          2729882                       # number of overall hits (Count)
system.cpu.dcache.demandMisses::cpu.data       158255                       # number of demand (read+write) misses (Count)
system.cpu.dcache.demandMisses::total          158255                       # number of demand (read+write) misses (Count)
system.cpu.dcache.overallMisses::cpu.data       158255                       # number of overall misses (Count)
system.cpu.dcache.overallMisses::total         158255                       # number of overall misses (Count)
system.cpu.dcache.demandMissLatency::cpu.data   2756422999                       # number of demand (read+write) miss ticks (Tick)
system.cpu.dcache.demandMissLatency::total   2756422999                       # number of demand (read+write) miss ticks (Tick)
system.cpu.dcache.overallMissLatency::cpu.data   2756422999                       # number of overall miss ticks (Tick)
system.cpu.dcache.overallMissLatency::total   2756422999                       # number of overall miss ticks (Tick)
system.cpu.dcache.demandAccesses::cpu.data      2888137                       # number of demand (read+write) accesses (Count)
system.cpu.dcache.demandAccesses::total       2888137                       # number of demand (read+write) accesses (Count)
system.cpu.dcache.overallAccesses::cpu.data      2888137                       # number of overall (read+write) accesses (Count)
system.cpu.dcache.overallAccesses::total      2888137                       # number of overall (read+write) accesses (Count)
system.cpu.dcache.demandMissRate::cpu.data     0.054795                       # miss rate for demand accesses (Ratio)
system.cpu.dcache.demandMissRate::total      0.054795                       # miss rate for demand accesses (Ratio)
system.cpu.dcache.overallMissRate::cpu.data     0.054795                       # miss rate for overall accesses (Ratio)
system.cpu.dcache.overallMissRate::total     0.054795                       # miss rate for overall accesses (Ratio)
system.cpu.dcache.demandAvgMissLatency::cpu.data 17417.604493                       # average overall miss latency ((Cycle/Count))
system.cpu.dcache.demandAvgMissLatency::total 17417.604493                       # average overall miss latency ((Cycle/Count))
system.cpu.dcache.overallAvgMissLatency::cpu.data 17417.604493                       # average overall miss latency ((Cycle/Count))
system.cpu.dcache.overallAvgMissLatency::total 17417.604493                       # average overall miss latency ((Cycle/Count))
system.cpu.dcache.blockedCycles::no_mshrs        35611                       # number of cycles access was blocked (Cycle)
system.cpu.dcache.blockedCycles::no_targets            0                       # number of cycles access was blocked (Cycle)
system.cpu.dcache.blockedCauses::no_mshrs         1778                       # number of times access was blocked (Count)
system.cpu.dcache.blockedCauses::no_targets            0                       # number of times access was blocked (Count)
system.cpu.dcache.avgBlocked::no_mshrs      20.028684                       # average number of cycles each access was blocked ((Cycle/Count))
system.cpu.dcache.avgBlocked::no_targets          nan                       # average number of cycles each access was blocked ((Cycle/Count))
system.cpu.dcache.writebacks::writebacks        14707                       # number of writebacks (Count)
system.cpu.dcache.writebacks::total             14707                       # number of writebacks (Count)
system.cpu.dcache.demandMshrHits::cpu.data       131996                       # number of demand (read+write) MSHR hits (Count)
system.cpu.dcache.demandMshrHits::total        131996                       # number of demand (read+write) MSHR hits (Count)
system.cpu.dcache.overallMshrHits::cpu.data       131996                       # number of overall MSHR hits (Count)
system.cpu.dcache.overallMshrHits::total       131996                       # number of overall MSHR hits (Count)
system.cpu.dcache.demandMshrMisses::cpu.data        26259                       # number of demand (read+write) MSHR misses (Count)
system.cpu.dcache.demandMshrMisses::total        26259                       # number of demand (read+write) MSHR misses (Count)
system.cpu.dcache.overallMshrMisses::cpu.data        26259                       # number of overall MSHR misses (Count)
system.cpu.dcache.overallMshrMisses::total        26259                       # number of overall MSHR misses (Count)
system.cpu.dcache.demandMshrMissLatency::cpu.data    515205999                       # number of demand (read+write) MSHR miss ticks (Tick)
system.cpu.dcache.demandMshrMissLatency::total    515205999                       # number of demand (read+write) MSHR miss ticks (Tick)
system.cpu.dcache.overallMshrMissLatency::cpu.data    515205999                       # number of overall MSHR miss ticks (Tick)
system.cpu.dcache.overallMshrMissLatency::total    515205999                       # number of overall MSHR miss ticks (Tick)
system.cpu.dcache.demandMshrMissRate::cpu.data     0.009092                       # mshr miss ratio for demand accesses (Ratio)
system.cpu.dcache.demandMshrMissRate::total     0.009092                       # mshr miss ratio for demand accesses (Ratio)
system.cpu.dcache.overallMshrMissRate::cpu.data     0.009092                       # mshr miss ratio for overall accesses (Ratio)
system.cpu.dcache.overallMshrMissRate::total     0.009092                       # mshr miss ratio for overall accesses (Ratio)
system.cpu.dcache.demandAvgMshrMissLatency::cpu.data 19620.168285                       # average overall mshr miss latency ((Cycle/Count))
system.cpu.dcache.demandAvgMshrMissLatency::total 19620.168285                       # average overall mshr miss latency ((Cycle/Count))
system.cpu.dcache.overallAvgMshrMissLatency::cpu.data 19620.168285                       # average overall mshr miss latency ((Cycle/Count))
system.cpu.dcache.overallAvgMshrMissLatency::total 19620.168285                       # average overall mshr miss latency ((Cycle/Count))
system.cpu.dcache.replacements                  25235                       # number of replacements (Count)
system.cpu.dcache.ReadReq.hits::cpu.data      2597471                       # number of ReadReq hits (Count)
system.cpu.dcache.ReadReq.hits::total         2597471                       # number of ReadReq hits (Count)
system.cpu.dcache.ReadReq.misses::cpu.data       158002                       # number of ReadReq misses (Count)
system.cpu.dcache.ReadReq.misses::total        158002                       # number of ReadReq misses (Count)
system.cpu.dcache.ReadReq.missLatency::cpu.data   2745840500                       # number of ReadReq miss ticks (Tick)
system.cpu.dcache.ReadReq.missLatency::total   2745840500                       # number of ReadReq miss ticks (Tick)
system.cpu.dcache.ReadReq.accesses::cpu.data      2755473                       # number of ReadReq accesses(hits+misses) (Count)
system.cpu.dcache.ReadReq.accesses::total      2755473                       # number of ReadReq accesses(hits+misses) (Count)
system.cpu.dcache.ReadReq.missRate::cpu.data     0.057341                       # miss rate for ReadReq accesses (Ratio)
system.cpu.dcache.ReadReq.missRate::total     0.057341                       # miss rate for ReadReq accesses (Ratio)
system.cpu.dcache.ReadReq.avgMissLatency::cpu.data 17378.517361                       # average ReadReq miss latency ((Tick/Count))
system.cpu.dcache.ReadReq.avgMissLatency::total 17378.517361                       # average ReadReq miss latency ((Tick/Count))
system.cpu.dcache.ReadReq.mshrHits::cpu.data       131994                       # number of ReadReq MSHR hits (Count)
system.cpu.dcache.ReadReq.mshrHits::total       131994                       # number of ReadReq MSHR hits (Count)
system.cpu.dcache.ReadReq.mshrMisses::cpu.data        26008                       # number of ReadReq MSHR misses (Count)
system.cpu.dcache.ReadReq.mshrMisses::total        26008                       # number of ReadReq MSHR misses (Count)
system.cpu.dcache.ReadReq.mshrMissLatency::cpu.data    504906000                       # number of ReadReq MSHR miss ticks (Tick)
system.cpu.dcache.ReadReq.mshrMissLatency::total    504906000                       # number of ReadReq MSHR miss ticks (Tick)
system.cpu.dcache.ReadReq.mshrMissRate::cpu.data     0.009439                       # mshr miss rate for ReadReq accesses (Ratio)
system.cpu.dcache.ReadReq.mshrMissRate::total     0.009439                       # mshr miss rate for ReadReq accesses (Ratio)
system.cpu.dcache.ReadReq.avgMshrMissLatency::cpu.data 19413.488157                       # average ReadReq mshr miss latency ((Tick/Count))
system.cpu.dcache.ReadReq.avgMshrMissLatency::total 19413.488157                       # average ReadReq mshr miss latency ((Tick/Count))
system.cpu.dcache.WriteReq.hits::cpu.data       132411                       # number of WriteReq hits (Count)
system.cpu.dcache.WriteReq.hits::total         132411                       # number of WriteReq hits (Count)
system.cpu.dcache.WriteReq.misses::cpu.data          253                       # number of WriteReq misses (Count)
system.cpu.dcache.WriteReq.misses::total          253                       # number of WriteReq misses (Count)
system.cpu.dcache.WriteReq.missLatency::cpu.data     10582499                       # number of WriteReq miss ticks (Tick)
system.cpu.dcache.WriteReq.missLatency::total     10582499                       # number of WriteReq miss ticks (Tick)
system.cpu.dcache.WriteReq.accesses::cpu.data       132664                       # number of WriteReq accesses(hits+misses) (Count)
system.cpu.dcache.WriteReq.accesses::total       132664                       # number of WriteReq accesses(hits+misses) (Count)
system.cpu.dcache.WriteReq.missRate::cpu.data     0.001907                       # miss rate for WriteReq accesses (Ratio)
system.cpu.dcache.WriteReq.missRate::total     0.001907                       # miss rate for WriteReq accesses (Ratio)
system.cpu.dcache.WriteReq.avgMissLatency::cpu.data 41828.059289                       # average WriteReq miss latency ((Tick/Count))
system.cpu.dcache.WriteReq.avgMissLatency::total 41828.059289                       # average WriteReq miss latency ((Tick/Count))
system.cpu.dcache.WriteReq.mshrHits::cpu.data            2                       # number of WriteReq MSHR hits (Count)
system.cpu.dcache.WriteReq.mshrHits::total            2                       # number of WriteReq MSHR hits (Count)
system.cpu.dcache.WriteReq.mshrMisses::cpu.data          251                       # number of WriteReq MSHR misses (Count)
system.cpu.dcache.WriteReq.mshrMisses::total          251                       # number of WriteReq MSHR misses (Count)
system.cpu.dcache.WriteReq.mshrMissLatency::cpu.data     10299999                       # number of WriteReq MSHR miss ticks (Tick)
system.cpu.dcache.WriteReq.mshrMissLatency::total     10299999                       # number of WriteReq MSHR miss ticks (Tick)
system.cpu.dcache.WriteReq.mshrMissRate::cpu.data     0.001892                       # mshr miss rate for WriteReq accesses (Ratio)
system.cpu.dcache.WriteReq.mshrMissRate::total     0.001892                       # mshr miss rate for WriteReq accesses (Ratio)
system.cpu.dcache.WriteReq.avgMshrMissLatency::cpu.data 41035.852590                       # average WriteReq mshr miss latency ((Tick/Count))
system.cpu.dcache.WriteReq.avgMshrMissLatency::total 41035.852590                       # average WriteReq mshr miss latency ((Tick/Count))
system.cpu.dcache.power_state.pwrStateResidencyTicks::UNDEFINED   1748657500                       # Cumulative time (in ticks) in various power states (Tick)
system.cpu.dcache.tags.tagsInUse           969.013246                       # Average ticks per tags in use ((Tick/Count))
system.cpu.dcache.tags.totalRefs              2756141                       # Total number of references to valid blocks. (Count)
system.cpu.dcache.tags.sampledRefs              26259                       # Sample count of references to valid blocks. (Count)
system.cpu.dcache.tags.avgRefs             104.959861                       # Average number of references to valid blocks. ((Count/Count))
system.cpu.dcache.tags.warmupTick              165500                       # The tick when the warmup percentage was hit. (Tick)
system.cpu.dcache.tags.occupancies::cpu.data   969.013246                       # Average occupied blocks per tick, per requestor ((Count/Tick))
system.cpu.dcache.tags.avgOccs::cpu.data     0.946302                       # Average percentage of cache occupancy ((Ratio/Tick))
system.cpu.dcache.tags.avgOccs::total        0.946302                       # Average percentage of cache occupancy ((Ratio/Tick))
system.cpu.dcache.tags.occupanciesTaskId::1024         1024                       # Occupied blocks per task id (Count)
system.cpu.dcache.tags.ageTaskId_1024::0          155                       # Occupied blocks per task id, per block age (Count)
system.cpu.dcache.tags.ageTaskId_1024::1          126                       # Occupied blocks per task id, per block age (Count)
system.cpu.dcache.tags.ageTaskId_1024::2          493                       # Occupied blocks per task id, per block age (Count)
system.cpu.dcache.tags.ageTaskId_1024::3          250                       # Occupied blocks per task id, per block age (Count)
system.cpu.dcache.tags.ratioOccsTaskId::1024            1                       # Ratio of occupied blocks and all blocks, per task id (Ratio)
system.cpu.dcache.tags.tagAccesses           11578807                       # Number of tag accesses (Count)
system.cpu.dcache.tags.dataAccesses          11578807                       # Number of data accesses (Count)
system.cpu.dcache.tags.power_state.pwrStateResidencyTicks::UNDEFINED   1748657500                       # Cumulative time (in ticks) in various power states (Tick)
system.cpu.decode.idleCycles                  1075207                       # Number of cycles decode is idle (Cycle)
system.cpu.decode.blockedCycles                321567                       # Number of cycles decode is blocked (Cycle)
system.cpu.decode.runCycles                   2020961                       # Number of cycles decode is running (Cycle)
system.cpu.decode.unblockCycles                 45851                       # Number of cycles decode is unblocking (Cycle)
system.cpu.decode.squashCycles                    895                       # Number of cycles decode is squashing (Cycle)
system.cpu.decode.branchResolved               263578                       # Number of times decode resolved a branch (Count)
system.cpu.decode.branchMispred                   223                       # Number of times decode detected a branch misprediction (Count)
system.cpu.decode.decodedInsts               14495162                       # Number of instructions handled by decode (Count)
system.cpu.decode.squashedInsts                  1029                       # Number of squashed instructions handled by decode (Count)
system.cpu.dtb_walker_cache.blockedCycles::no_mshrs            0                       # number of cycles access was blocked (Cycle)
system.cpu.dtb_walker_cache.blockedCycles::no_targets            0                       # number of cycles access was blocked (Cycle)
system.cpu.dtb_walker_cache.blockedCauses::no_mshrs            0                       # number of times access was blocked (Count)
system.cpu.dtb_walker_cache.blockedCauses::no_targets            0                       # number of times access was blocked (Count)
system.cpu.dtb_walker_cache.avgBlocked::no_mshrs          nan                       # average number of cycles each access was blocked ((Cycle/Count))
system.cpu.dtb_walker_cache.avgBlocked::no_targets          nan                       # average number of cycles each access was blocked ((Cycle/Count))
system.cpu.dtb_walker_cache.replacements            0                       # number of replacements (Count)
system.cpu.dtb_walker_cache.power_state.pwrStateResidencyTicks::UNDEFINED   1748657500                       # Cumulative time (in ticks) in various power states (Tick)
system.cpu.dtb_walker_cache.tags.tagsInUse            0                       # Average ticks per tags in use ((Tick/Count))
system.cpu.dtb_walker_cache.tags.totalRefs            0                       # Total number of references to valid blocks. (Count)
system.cpu.dtb_walker_cache.tags.sampledRefs            0                       # Sample count of references to valid blocks. (Count)
system.cpu.dtb_walker_cache.tags.avgRefs          nan                       # Average number of references to valid blocks. ((Count/Count))
system.cpu.dtb_walker_cache.tags.warmupTick            0                       # The tick when the warmup percentage was hit. (Tick)
system.cpu.dtb_walker_cache.tags.tagAccesses            0                       # Number of tag accesses (Count)
system.cpu.dtb_walker_cache.tags.dataAccesses            0                       # Number of data accesses (Count)
system.cpu.dtb_walker_cache.tags.power_state.pwrStateResidencyTicks::UNDEFINED   1748657500                       # Cumulative time (in ticks) in various power states (Tick)
system.cpu.fetch.icacheStallCycles             871955                       # Number of cycles fetch is stalled on an Icache miss (Cycle)
system.cpu.fetch.insts                        8119028                       # Number of instructions fetch has processed (Count)
system.cpu.fetch.branches                      299074                       # Number of branches that fetch encountered (Count)
system.cpu.fetch.predictedBranches             263735                       # Number of branches that fetch has predicted taken (Count)
system.cpu.fetch.cycles                       2590615                       # Number of cycles fetch has run and was not squashing or blocked (Cycle)
system.cpu.fetch.squashCycles                    2222                       # Number of cycles fetch has spent squashing (Cycle)
system.cpu.fetch.miscStallCycles                  116                       # Number of cycles fetch has spent waiting on interrupts, or bad addresses, or out of MSHRs (Cycle)
system.cpu.fetch.pendingTrapStallCycles           682                       # Number of stall cycles due to pending traps (Cycle)
system.cpu.fetch.pendingQuiesceStallCycles            2                       # Number of stall cycles due to pending quiesce instructions (Cycle)
system.cpu.fetch.cacheLines                    855763                       # Number of cache lines fetched (Count)
system.cpu.fetch.icacheSquashes                   428                       # Number of outstanding Icache misses that were squashed (Count)
system.cpu.fetch.nisnDist::samples            3464481                       # Number of instructions fetched each cycle (Total) (Count)
system.cpu.fetch.nisnDist::mean              4.185605                       # Number of instructions fetched each cycle (Total) (Count)
system.cpu.fetch.nisnDist::stdev             3.659521                       # Number of instructions fetched each cycle (Total) (Count)
system.cpu.fetch.nisnDist::underflows               0      0.00%      0.00% # Number of instructions fetched each cycle (Total) (Count)
system.cpu.fetch.nisnDist::0                  1389085     40.10%     40.10% # Number of instructions fetched each cycle (Total) (Count)
system.cpu.fetch.nisnDist::1                     2276      0.07%     40.16% # Number of instructions fetched each cycle (Total) (Count)
system.cpu.fetch.nisnDist::2                     1290      0.04%     40.20% # Number of instructions fetched each cycle (Total) (Count)
system.cpu.fetch.nisnDist::3                    66773      1.93%     42.13% # Number of instructions fetched each cycle (Total) (Count)
system.cpu.fetch.nisnDist::4                   228809      6.60%     48.73% # Number of instructions fetched each cycle (Total) (Count)
system.cpu.fetch.nisnDist::5                   263543      7.61%     56.34% # Number of instructions fetched each cycle (Total) (Count)
system.cpu.fetch.nisnDist::6                     1563      0.05%     56.38% # Number of instructions fetched each cycle (Total) (Count)
system.cpu.fetch.nisnDist::7                    35692      1.03%     57.41% # Number of instructions fetched each cycle (Total) (Count)
system.cpu.fetch.nisnDist::8                  1475450     42.59%    100.00% # Number of instructions fetched each cycle (Total) (Count)
system.cpu.fetch.nisnDist::overflows                0      0.00%    100.00% # Number of instructions fetched each cycle (Total) (Count)
system.cpu.fetch.nisnDist::min_value                0                       # Number of instructions fetched each cycle (Total) (Count)
system.cpu.fetch.nisnDist::max_value                8                       # Number of instructions fetched each cycle (Total) (Count)
system.cpu.fetch.nisnDist::total              3464481                       # Number of instructions fetched each cycle (Total) (Count)
system.cpu.fetch.branchRate                  0.085515                       # Number of branch fetches per cycle (Ratio)
system.cpu.fetch.rate                        2.321503                       # Number of inst fetches per cycle ((Count/Cycle))
system.cpu.icache.demandHits::cpu.inst         855139                       # number of demand (read+write) hits (Count)
system.cpu.icache.demandHits::total            855139                       # number of demand (read+write) hits (Count)
system.cpu.icache.overallHits::cpu.inst        855139                       # number of overall hits (Count)
system.cpu.icache.overallHits::total           855139                       # number of overall hits (Count)
system.cpu.icache.demandMisses::cpu.inst          624                       # number of demand (read+write) misses (Count)
system.cpu.icache.demandMisses::total             624                       # number of demand (read+write) misses (Count)
system.cpu.icache.overallMisses::cpu.inst          624                       # number of overall misses (Count)
system.cpu.icache.overallMisses::total            624                       # number of overall misses (Count)
system.cpu.icache.demandMissLatency::cpu.inst     44708500                       # number of demand (read+write) miss ticks (Tick)
system.cpu.icache.demandMissLatency::total     44708500                       # number of demand (read+write) miss ticks (Tick)
system.cpu.icache.overallMissLatency::cpu.inst     44708500                       # number of overall miss ticks (Tick)
system.cpu.icache.overallMissLatency::total     44708500                       # number of overall miss ticks (Tick)
system.cpu.icache.demandAccesses::cpu.inst       855763                       # number of demand (read+write) accesses (Count)
system.cpu.icache.demandAccesses::total        855763                       # number of demand (read+write) accesses (Count)
system.cpu.icache.overallAccesses::cpu.inst       855763                       # number of overall (read+write) accesses (Count)
system.cpu.icache.overallAccesses::total       855763                       # number of overall (read+write) accesses (Count)
system.cpu.icache.demandMissRate::cpu.inst     0.000729                       # miss rate for demand accesses (Ratio)
system.cpu.icache.demandMissRate::total      0.000729                       # miss rate for demand accesses (Ratio)
system.cpu.icache.overallMissRate::cpu.inst     0.000729                       # miss rate for overall accesses (Ratio)
system.cpu.icache.overallMissRate::total     0.000729                       # miss rate for overall accesses (Ratio)
system.cpu.icache.demandAvgMissLatency::cpu.inst 71648.237179                       # average overall miss latency ((Cycle/Count))
system.cpu.icache.demandAvgMissLatency::total 71648.237179                       # average overall miss latency ((Cycle/Count))
system.cpu.icache.overallAvgMissLatency::cpu.inst 71648.237179                       # average overall miss latency ((Cycle/Count))
system.cpu.icache.overallAvgMissLatency::total 71648.237179                       # average overall miss latency ((Cycle/Count))
system.cpu.icache.blockedCycles::no_mshrs          164                       # number of cycles access was blocked (Cycle)
system.cpu.icache.blockedCycles::no_targets            0                       # number of cycles access was blocked (Cycle)
system.cpu.icache.blockedCauses::no_mshrs            3                       # number of times access was blocked (Count)
system.cpu.icache.blockedCauses::no_targets            0                       # number of times access was blocked (Count)
system.cpu.icache.avgBlocked::no_mshrs      54.666667                       # average number of cycles each access was blocked ((Cycle/Count))
system.cpu.icache.avgBlocked::no_targets          nan                       # average number of cycles each access was blocked ((Cycle/Count))
system.cpu.icache.writebacks::writebacks           19                       # number of writebacks (Count)
system.cpu.icache.writebacks::total                19                       # number of writebacks (Count)
system.cpu.icache.demandMshrHits::cpu.inst          156                       # number of demand (read+write) MSHR hits (Count)
system.cpu.icache.demandMshrHits::total           156                       # number of demand (read+write) MSHR hits (Count)
system.cpu.icache.overallMshrHits::cpu.inst          156                       # number of overall MSHR hits (Count)
system.cpu.icache.overallMshrHits::total          156                       # number of overall MSHR hits (Count)
system.cpu.icache.demandMshrMisses::cpu.inst          468                       # number of demand (read+write) MSHR misses (Count)
system.cpu.icache.demandMshrMisses::total          468                       # number of demand (read+write) MSHR misses (Count)
system.cpu.icache.overallMshrMisses::cpu.inst          468                       # number of overall MSHR misses (Count)
system.cpu.icache.overallMshrMisses::total          468                       # number of overall MSHR misses (Count)
system.cpu.icache.demandMshrMissLatency::cpu.inst     35174500                       # number of demand (read+write) MSHR miss ticks (Tick)
system.cpu.icache.demandMshrMissLatency::total     35174500                       # number of demand (read+write) MSHR miss ticks (Tick)
system.cpu.icache.overallMshrMissLatency::cpu.inst     35174500                       # number of overall MSHR miss ticks (Tick)
system.cpu.icache.overallMshrMissLatency::total     35174500                       # number of overall MSHR miss ticks (Tick)
system.cpu.icache.demandMshrMissRate::cpu.inst     0.000547                       # mshr miss ratio for demand accesses (Ratio)
system.cpu.icache.demandMshrMissRate::total     0.000547                       # mshr miss ratio for demand accesses (Ratio)
system.cpu.icache.overallMshrMissRate::cpu.inst     0.000547                       # mshr miss ratio for overall accesses (Ratio)
system.cpu.icache.overallMshrMissRate::total     0.000547                       # mshr miss ratio for overall accesses (Ratio)
system.cpu.icache.demandAvgMshrMissLatency::cpu.inst 75159.188034                       # average overall mshr miss latency ((Cycle/Count))
system.cpu.icache.demandAvgMshrMissLatency::total 75159.188034                       # average overall mshr miss latency ((Cycle/Count))
system.cpu.icache.overallAvgMshrMissLatency::cpu.inst 75159.188034                       # average overall mshr miss latency ((Cycle/Count))
system.cpu.icache.overallAvgMshrMissLatency::total 75159.188034                       # average overall mshr miss latency ((Cycle/Count))
system.cpu.icache.replacements                     19                       # number of replacements (Count)
system.cpu.icache.ReadReq.hits::cpu.inst       855139                       # number of ReadReq hits (Count)
system.cpu.icache.ReadReq.hits::total          855139                       # number of ReadReq hits (Count)
system.cpu.icache.ReadReq.misses::cpu.inst          624                       # number of ReadReq misses (Count)
system.cpu.icache.ReadReq.misses::total           624                       # number of ReadReq misses (Count)
system.cpu.icache.ReadReq.missLatency::cpu.inst     44708500                       # number of ReadReq miss ticks (Tick)
system.cpu.icache.ReadReq.missLatency::total     44708500                       # number of ReadReq miss ticks (Tick)
system.cpu.icache.ReadReq.accesses::cpu.inst       855763                       # number of ReadReq accesses(hits+misses) (Count)
system.cpu.icache.ReadReq.accesses::total       855763                       # number of ReadReq accesses(hits+misses) (Count)
system.cpu.icache.ReadReq.missRate::cpu.inst     0.000729                       # miss rate for ReadReq accesses (Ratio)
system.cpu.icache.ReadReq.missRate::total     0.000729                       # miss rate for ReadReq accesses (Ratio)
system.cpu.icache.ReadReq.avgMissLatency::cpu.inst 71648.237179                       # average ReadReq miss latency ((Tick/Count))
system.cpu.icache.ReadReq.avgMissLatency::total 71648.237179                       # average ReadReq miss latency ((Tick/Count))
system.cpu.icache.ReadReq.mshrHits::cpu.inst          156                       # number of ReadReq MSHR hits (Count)
system.cpu.icache.ReadReq.mshrHits::total          156                       # number of ReadReq MSHR hits (Count)
system.cpu.icache.ReadReq.mshrMisses::cpu.inst          468                       # number of ReadReq MSHR misses (Count)
system.cpu.icache.ReadReq.mshrMisses::total          468                       # number of ReadReq MSHR misses (Count)
system.cpu.icache.ReadReq.mshrMissLatency::cpu.inst     35174500                       # number of ReadReq MSHR miss ticks (Tick)
system.cpu.icache.ReadReq.mshrMissLatency::total     35174500                       # number of ReadReq MSHR miss ticks (Tick)
system.cpu.icache.ReadReq.mshrMissRate::cpu.inst     0.000547                       # mshr miss rate for ReadReq accesses (Ratio)
system.cpu.icache.ReadReq.mshrMissRate::total     0.000547                       # mshr miss rate for ReadReq accesses (Ratio)
system.cpu.icache.ReadReq.avgMshrMissLatency::cpu.inst 75159.188034                       # average ReadReq mshr miss latency ((Tick/Count))
system.cpu.icache.ReadReq.avgMshrMissLatency::total 75159.188034                       # average ReadReq mshr miss latency ((Tick/Count))
system.cpu.icache.power_state.pwrStateResidencyTicks::UNDEFINED   1748657500                       # Cumulative time (in ticks) in various power states (Tick)
system.cpu.icache.tags.tagsInUse           407.551212                       # Average ticks per tags in use ((Tick/Count))
system.cpu.icache.tags.totalRefs               855606                       # Total number of references to valid blocks. (Count)
system.cpu.icache.tags.sampledRefs                467                       # Sample count of references to valid blocks. (Count)
system.cpu.icache.tags.avgRefs            1832.132762                       # Average number of references to valid blocks. ((Count/Count))
system.cpu.icache.tags.warmupTick               82000                       # The tick when the warmup percentage was hit. (Tick)
system.cpu.icache.tags.occupancies::cpu.inst   407.551212                       # Average occupied blocks per tick, per requestor ((Count/Tick))
system.cpu.icache.tags.avgOccs::cpu.inst     0.397999                       # Average percentage of cache occupancy ((Ratio/Tick))
system.cpu.icache.tags.avgOccs::total        0.397999                       # Average percentage of cache occupancy ((Ratio/Tick))
system.cpu.icache.tags.occupanciesTaskId::1024          448                       # Occupied blocks per task id (Count)
system.cpu.icache.tags.ageTaskId_1024::0           41                       # Occupied blocks per task id, per block age (Count)
system.cpu.icache.tags.ageTaskId_1024::2            1                       # Occupied blocks per task id, per block age (Count)
system.cpu.icache.tags.ageTaskId_1024::3          406                       # Occupied blocks per task id, per block age (Count)
system.cpu.icache.tags.ratioOccsTaskId::1024     0.437500                       # Ratio of occupied blocks and all blocks, per task id (Ratio)
system.cpu.icache.tags.tagAccesses            1711993                       # Number of tag accesses (Count)
system.cpu.icache.tags.dataAccesses           1711993                       # Number of data accesses (Count)
system.cpu.icache.tags.power_state.pwrStateResidencyTicks::UNDEFINED   1748657500                       # Cumulative time (in ticks) in various power states (Tick)
system.cpu.iew.idleCycles                           0                       # Number of cycles IEW is idle (Cycle)
system.cpu.iew.squashCycles                       895                       # Number of cycles IEW is squashing (Cycle)
system.cpu.iew.blockCycles                       6839                       # Number of cycles IEW is blocking (Cycle)
system.cpu.iew.unblockCycles                    28502                       # Number of cycles IEW is unblocking (Cycle)
system.cpu.iew.dispatchedInsts               14488161                       # Number of instructions dispatched to IQ (Count)
system.cpu.iew.dispSquashedInsts                  101                       # Number of squashed instructions skipped by dispatch (Count)
system.cpu.iew.dispLoadInsts                  2625652                       # Number of dispatched load instructions (Count)
system.cpu.iew.dispStoreInsts                  133773                       # Number of dispatched store instructions (Count)
system.cpu.iew.dispNonSpecInsts                     1                       # Number of dispatched non-speculative instructions (Count)
system.cpu.iew.iqFullEvents                       144                       # Number of times the IQ has become full, causing a stall (Count)
system.cpu.iew.lsqFullEvents                    28300                       # Number of times the LSQ has become full, causing a stall (Count)
system.cpu.iew.memOrderViolationEvents             13                       # Number of memory order violations (Count)
system.cpu.iew.predictedTakenIncorrect            324                       # Number of branches that were predicted taken incorrectly (Count)
system.cpu.iew.predictedNotTakenIncorrect          654                       # Number of branches that were predicted not taken incorrectly (Count)
system.cpu.iew.branchMispredicts                  978                       # Number of branch mispredicts detected at execute (Count)
system.cpu.iew.instsToCommit                 14481148                       # Cumulative count of insts sent to commit (Count)
system.cpu.iew.writebackCount                14480795                       # Cumulative count of insts written-back (Count)
system.cpu.iew.producerInst                   7015056                       # Number of instructions producing a value (Count)
system.cpu.iew.consumerInst                  10814243                       # Number of instructions consuming a value (Count)
system.cpu.iew.wbRate                        4.140545                       # Insts written-back per cycle ((Count/Cycle))
system.cpu.iew.wbFanout                      0.648687                       # Average fanout of values written-back ((Count/Count))
system.cpu.interrupts.clk_domain.clock           8000                       # Clock period in ticks (Tick)
system.cpu.itb_walker_cache.blockedCycles::no_mshrs            0                       # number of cycles access was blocked (Cycle)
system.cpu.itb_walker_cache.blockedCycles::no_targets            0                       # number of cycles access was blocked (Cycle)
system.cpu.itb_walker_cache.blockedCauses::no_mshrs            0                       # number of times access was blocked (Count)
system.cpu.itb_walker_cache.blockedCauses::no_targets            0                       # number of times access was blocked (Count)
system.cpu.itb_walker_cache.avgBlocked::no_mshrs          nan                       # average number of cycles each access was blocked ((Cycle/Count))
system.cpu.itb_walker_cache.avgBlocked::no_targets          nan                       # average number of cycles each access was blocked ((Cycle/Count))
system.cpu.itb_walker_cache.replacements            0                       # number of replacements (Count)
system.cpu.itb_walker_cache.power_state.pwrStateResidencyTicks::UNDEFINED   1748657500                       # Cumulative time (in ticks) in various power states (Tick)
system.cpu.itb_walker_cache.tags.tagsInUse            0                       # Average ticks per tags in use ((Tick/Count))
system.cpu.itb_walker_cache.tags.totalRefs            0                       # Total number of references to valid blocks. (Count)
system.cpu.itb_walker_cache.tags.sampledRefs            0                       # Sample count of references to valid blocks. (Count)
system.cpu.itb_walker_cache.tags.avgRefs          nan                       # Average number of references to valid blocks. ((Count/Count))
system.cpu.itb_walker_cache.tags.warmupTick            0                       # The tick when the warmup percentage was hit. (Tick)
system.cpu.itb_walker_cache.tags.tagAccesses            0                       # Number of tag accesses (Count)
system.cpu.itb_walker_cache.tags.dataAccesses            0                       # Number of data accesses (Count)
system.cpu.itb_walker_cache.tags.power_state.pwrStateResidencyTicks::UNDEFINED   1748657500                       # Cumulative time (in ticks) in various power states (Tick)
system.cpu.lsq0.forwLoads                         199                       # Number of loads that had data forwarded from stores (Count)
system.cpu.lsq0.squashedLoads                    2729                       # Number of loads squashed (Count)
system.cpu.lsq0.ignoredResponses                    1                       # Number of memory responses ignored because the instruction is squashed (Count)
system.cpu.lsq0.memOrderViolation                  13                       # Number of memory ordering violations (Count)
system.cpu.lsq0.squashedStores                   1110                       # Number of stores squashed (Count)
system.cpu.lsq0.rescheduledLoads                    0                       # Number of loads that were rescheduled (Count)
system.cpu.lsq0.blockedByCache                   1734                       # Number of times an access to memory failed due to the cache being blocked (Count)
system.cpu.lsq0.loadToUse::samples            2622923                       # Distribution of cycle latency between the first time a load is issued and its completion (Unspecified)
system.cpu.lsq0.loadToUse::mean              5.544659                       # Distribution of cycle latency between the first time a load is issued and its completion (Unspecified)
system.cpu.lsq0.loadToUse::stdev            12.311502                       # Distribution of cycle latency between the first time a load is issued and its completion (Unspecified)
system.cpu.lsq0.loadToUse::0-9                2469732     94.16%     94.16% # Distribution of cycle latency between the first time a load is issued and its completion (Unspecified)
system.cpu.lsq0.loadToUse::10-19                 7946      0.30%     94.46% # Distribution of cycle latency between the first time a load is issued and its completion (Unspecified)
system.cpu.lsq0.loadToUse::20-29               109832      4.19%     98.65% # Distribution of cycle latency between the first time a load is issued and its completion (Unspecified)
system.cpu.lsq0.loadToUse::30-39                19541      0.75%     99.39% # Distribution of cycle latency between the first time a load is issued and its completion (Unspecified)
system.cpu.lsq0.loadToUse::40-49                  682      0.03%     99.42% # Distribution of cycle latency between the first time a load is issued and its completion (Unspecified)
system.cpu.lsq0.loadToUse::50-59                  118      0.00%     99.43% # Distribution of cycle latency between the first time a load is issued and its completion (Unspecified)
system.cpu.lsq0.loadToUse::60-69                  141      0.01%     99.43% # Distribution of cycle latency between the first time a load is issued and its completion (Unspecified)
system.cpu.lsq0.loadToUse::70-79                   26      0.00%     99.43% # Distribution of cycle latency between the first time a load is issued and its completion (Unspecified)
system.cpu.lsq0.loadToUse::80-89                  224      0.01%     99.44% # Distribution of cycle latency between the first time a load is issued and its completion (Unspecified)
[...]
system.mem_ctrls.dram.perBankWrBursts::10            0                       # Per bank write bursts (Count)
system.mem_ctrls.dram.perBankWrBursts::11            0                       # Per bank write bursts (Count)
system.mem_ctrls.dram.perBankWrBursts::12            0                       # Per bank write bursts (Count)
system.mem_ctrls.dram.perBankWrBursts::13            0                       # Per bank write bursts (Count)
system.mem_ctrls.dram.perBankWrBursts::14            0                       # Per bank write bursts (Count)
system.mem_ctrls.dram.perBankWrBursts::15            0                       # Per bank write bursts (Count)
system.mem_ctrls.dram.totQLat                25417000                       # Total ticks spent queuing (Tick)
system.mem_ctrls.dram.totBusLat              18825000                       # Total ticks spent in databus transfers (Tick)
system.mem_ctrls.dram.totMemAccLat           96010750                       # Total ticks spent from burst creation until serviced by the DRAM (Tick)
system.mem_ctrls.dram.avgQLat                 6750.86                       # Average queueing delay per DRAM burst ((Tick/Count))
system.mem_ctrls.dram.avgBusLat               5000.00                       # Average bus latency per DRAM burst ((Tick/Count))
system.mem_ctrls.dram.avgMemAccLat           25500.86                       # Average memory access latency per DRAM burst ((Tick/Count))
system.mem_ctrls.dram.readRowHits                3252                       # Number of row buffer hits during reads (Count)
system.mem_ctrls.dram.writeRowHits                  0                       # Number of row buffer hits during writes (Count)
system.mem_ctrls.dram.readRowHitRate            86.37                       # Row buffer hit rate for reads (Ratio)
system.mem_ctrls.dram.writeRowHitRate             nan                       # Row buffer hit rate for writes (Ratio)
system.mem_ctrls.dram.bytesPerActivate::samples          503                       # Bytes accessed per row activation (Byte)
system.mem_ctrls.dram.bytesPerActivate::mean   473.829026                       # Bytes accessed per row activation (Byte)
system.mem_ctrls.dram.bytesPerActivate::gmean   304.262860                       # Bytes accessed per row activation (Byte)
system.mem_ctrls.dram.bytesPerActivate::stdev   370.537709                       # Bytes accessed per row activation (Byte)
system.mem_ctrls.dram.bytesPerActivate::0-127          107     21.27%     21.27% # Bytes accessed per row activation (Byte)
system.mem_ctrls.dram.bytesPerActivate::128-255           85     16.90%     38.17% # Bytes accessed per row activation (Byte)
system.mem_ctrls.dram.bytesPerActivate::256-383           26      5.17%     43.34% # Bytes accessed per row activation (Byte)
system.mem_ctrls.dram.bytesPerActivate::384-511           67     13.32%     56.66% # Bytes accessed per row activation (Byte)
system.mem_ctrls.dram.bytesPerActivate::512-639           57     11.33%     67.99% # Bytes accessed per row activation (Byte)
system.mem_ctrls.dram.bytesPerActivate::640-767           14      2.78%     70.78% # Bytes accessed per row activation (Byte)
system.mem_ctrls.dram.bytesPerActivate::768-895            9      1.79%     72.56% # Bytes accessed per row activation (Byte)
system.mem_ctrls.dram.bytesPerActivate::896-1023           33      6.56%     79.13% # Bytes accessed per row activation (Byte)
system.mem_ctrls.dram.bytesPerActivate::1024-1151          105     20.87%    100.00% # Bytes accessed per row activation (Byte)
system.mem_ctrls.dram.bytesPerActivate::total          503                       # Bytes accessed per row activation (Byte)
system.mem_ctrls.dram.bytesRead                240960                       # Total bytes read (Byte)
system.mem_ctrls.dram.bytesWritten                  0                       # Total bytes written (Byte)
system.mem_ctrls.dram.avgRdBW              137.797139                       # Average DRAM read bandwidth in MiBytes/s ((Byte/Second))
system.mem_ctrls.dram.avgWrBW                       0                       # Average DRAM write bandwidth in MiBytes/s ((Byte/Second))
system.mem_ctrls.dram.peakBW                 12800.00                       # Theoretical peak bandwidth in MiByte/s ((Byte/Second))
system.mem_ctrls.dram.busUtil                    1.08                       # Data bus utilization in percentage (Ratio)
system.mem_ctrls.dram.busUtilRead                1.08                       # Data bus utilization in percentage for reads (Ratio)
system.mem_ctrls.dram.busUtilWrite               0.00                       # Data bus utilization in percentage for writes (Ratio)
system.mem_ctrls.dram.pageHitRate               86.37                       # Row buffer hit rate, read and write combined (Ratio)
system.mem_ctrls.dram.power_state.pwrStateResidencyTicks::UNDEFINED   1748657500                       # Cumulative time (in ticks) in various power states (Tick)
system.mem_ctrls.dram.rank0.actEnergy         2227680                       # Energy for activate commands per rank (pJ) (Joule)
system.mem_ctrls.dram.rank0.preEnergy         1161270                       # Energy for precharge commands per rank (pJ) (Joule)
system.mem_ctrls.dram.rank0.readEnergy       15722280                       # Energy for read commands per rank (pJ) (Joule)
system.mem_ctrls.dram.rank0.writeEnergy             0                       # Energy for write commands per rank (pJ) (Joule)
system.mem_ctrls.dram.rank0.refreshEnergy 137679360.000000                       # Energy for refresh commands per rank (pJ) (Joule)
system.mem_ctrls.dram.rank0.actBackEnergy    283600080                       # Energy for active background per rank (pJ) (Joule)
system.mem_ctrls.dram.rank0.preBackEnergy    432663360                       # Energy for precharge background per rank (pJ) (Joule)
system.mem_ctrls.dram.rank0.actPowerDownEnergy            0                       # Energy for active power-down per rank (pJ) (Joule)
system.mem_ctrls.dram.rank0.prePowerDownEnergy            0                       # Energy for precharge power-down per rank (pJ) (Joule)
system.mem_ctrls.dram.rank0.selfRefreshEnergy            0                       # Energy for self refresh per rank (pJ) (Joule)
system.mem_ctrls.dram.rank0.totalEnergy     873054030                       # Total energy per rank (pJ) (Joule)
system.mem_ctrls.dram.rank0.averagePower   499.271029                       # Core power per rank (mW) (Watt)
system.mem_ctrls.dram.rank0.totalIdleTime            0                       # Total Idle time Per DRAM Rank (Tick)
system.mem_ctrls.dram.rank0.pwrStateTime::IDLE   1121881500                       # Time in different power states (Tick)
system.mem_ctrls.dram.rank0.pwrStateTime::REF     58240000                       # Time in different power states (Tick)
system.mem_ctrls.dram.rank0.pwrStateTime::SREF            0                       # Time in different power states (Tick)
system.mem_ctrls.dram.rank0.pwrStateTime::PRE_PDN            0                       # Time in different power states (Tick)
system.mem_ctrls.dram.rank0.pwrStateTime::ACT    568536000                       # Time in different power states (Tick)
system.mem_ctrls.dram.rank0.pwrStateTime::ACT_PDN            0                       # Time in different power states (Tick)
system.mem_ctrls.dram.rank1.actEnergy         1435140                       # Energy for activate commands per rank (pJ) (Joule)
system.mem_ctrls.dram.rank1.preEnergy          747615                       # Energy for precharge commands per rank (pJ) (Joule)
system.mem_ctrls.dram.rank1.readEnergy       11159820                       # Energy for read commands per rank (pJ) (Joule)
system.mem_ctrls.dram.rank1.writeEnergy             0                       # Energy for write commands per rank (pJ) (Joule)
system.mem_ctrls.dram.rank1.refreshEnergy 137679360.000000                       # Energy for refresh commands per rank (pJ) (Joule)
system.mem_ctrls.dram.rank1.actBackEnergy    147036630                       # Energy for active background per rank (pJ) (Joule)
system.mem_ctrls.dram.rank1.preBackEnergy    547664160                       # Energy for precharge background per rank (pJ) (Joule)
system.mem_ctrls.dram.rank1.actPowerDownEnergy            0                       # Energy for active power-down per rank (pJ) (Joule)
system.mem_ctrls.dram.rank1.prePowerDownEnergy            0                       # Energy for precharge power-down per rank (pJ) (Joule)
system.mem_ctrls.dram.rank1.selfRefreshEnergy            0                       # Energy for self refresh per rank (pJ) (Joule)
system.mem_ctrls.dram.rank1.totalEnergy     845722725                       # Total energy per rank (pJ) (Joule)
system.mem_ctrls.dram.rank1.averagePower   483.641150                       # Core power per rank (mW) (Watt)
system.mem_ctrls.dram.rank1.totalIdleTime            0                       # Total Idle time Per DRAM Rank (Tick)
system.mem_ctrls.dram.rank1.pwrStateTime::IDLE   1422330500                       # Time in different power states (Tick)
system.mem_ctrls.dram.rank1.pwrStateTime::REF     58240000                       # Time in different power states (Tick)
system.mem_ctrls.dram.rank1.pwrStateTime::SREF            0                       # Time in different power states (Tick)
system.mem_ctrls.dram.rank1.pwrStateTime::PRE_PDN            0                       # Time in different power states (Tick)
system.mem_ctrls.dram.rank1.pwrStateTime::ACT    268087000                       # Time in different power states (Tick)
system.mem_ctrls.dram.rank1.pwrStateTime::ACT_PDN            0                       # Time in different power states (Tick)
system.mem_ctrls.power_state.pwrStateResidencyTicks::UNDEFINED   1748657500                       # Cumulative time (in ticks) in various power states (Tick)
system.membus.transDist::ReadResp                3659                       # Transaction distribution (Count)
system.membus.transDist::ReadExReq                106                       # Transaction distribution (Count)
system.membus.transDist::ReadExResp               106                       # Transaction distribution (Count)
system.membus.transDist::ReadSharedReq           3659                       # Transaction distribution (Count)
system.membus.pktCount_system.l2.mem_side_port::system.mem_ctrls.port         7530                       # Packet count per connected requestor and responder (Count)
system.membus.pktCount_system.l2.mem_side_port::total         7530                       # Packet count per connected requestor and responder (Count)
system.membus.pktCount::total                    7530                       # Packet count per connected requestor and responder (Count)
system.membus.pktSize_system.l2.mem_side_port::system.mem_ctrls.port       240960                       # Cumulative packet size per connected requestor and responder (Byte)
system.membus.pktSize_system.l2.mem_side_port::total       240960                       # Cumulative packet size per connected requestor and responder (Byte)
system.membus.pktSize::total                   240960                       # Cumulative packet size per connected requestor and responder (Byte)
system.membus.snoops                                0                       # Total snoops (Count)
system.membus.snoopTraffic                          0                       # Total snoop traffic (Byte)
system.membus.snoopFanout::samples               3765                       # Request fanout histogram (Count)
system.membus.snoopFanout::mean                     0                       # Request fanout histogram (Count)
system.membus.snoopFanout::stdev                    0                       # Request fanout histogram (Count)
system.membus.snoopFanout::underflows               0      0.00%      0.00% # Request fanout histogram (Count)
system.membus.snoopFanout::0                     3765    100.00%    100.00% # Request fanout histogram (Count)
system.membus.snoopFanout::1                        0      0.00%    100.00% # Request fanout histogram (Count)
system.membus.snoopFanout::overflows                0      0.00%    100.00% # Request fanout histogram (Count)
system.membus.snoopFanout::min_value                0                       # Request fanout histogram (Count)
system.membus.snoopFanout::max_value                0                       # Request fanout histogram (Count)
system.membus.snoopFanout::total                 3765                       # Request fanout histogram (Count)
system.membus.power_state.pwrStateResidencyTicks::UNDEFINED   1748657500                       # Cumulative time (in ticks) in various power states (Tick)
system.membus.reqLayer2.occupancy             1882500                       # Layer occupancy (ticks) (Tick)
system.membus.reqLayer2.utilization               0.0                       # Layer utilization (Ratio)
system.membus.respLayer1.occupancy           10186750                       # Layer occupancy (ticks) (Tick)
system.membus.respLayer1.utilization              0.0                       # Layer utilization (Ratio)
system.membus.snoop_filter.totRequests           3765                       # Total number of requests made to the snoop filter. (Count)
system.membus.snoop_filter.hitSingleRequests            0                       # Number of requests hitting in the snoop filter with a single holder of the requested data. (Count)
system.membus.snoop_filter.hitMultiRequests            0                       # Number of requests hitting in the snoop filter with multiple (>1) holders of the requested data. (Count)
system.membus.snoop_filter.totSnoops                0                       # Total number of snoops made to the snoop filter. (Count)
system.membus.snoop_filter.hitSingleSnoops            0                       # Number of snoops hitting in the snoop filter with a single holder of the requested data. (Count)
system.membus.snoop_filter.hitMultiSnoops            0                       # Number of snoops hitting in the snoop filter with multiple (>1) holders of the requested data. (Count)
system.tol2bus.transDist::ReadResp              26475                       # Transaction distribution (Count)
system.tol2bus.transDist::WritebackDirty        14707                       # Transaction distribution (Count)
system.tol2bus.transDist::WritebackClean           19                       # Transaction distribution (Count)
system.tol2bus.transDist::CleanEvict            10529                       # Transaction distribution (Count)
system.tol2bus.transDist::ReadExReq               251                       # Transaction distribution (Count)
system.tol2bus.transDist::ReadExResp              251                       # Transaction distribution (Count)
system.tol2bus.transDist::ReadCleanReq            468                       # Transaction distribution (Count)
system.tol2bus.transDist::ReadSharedReq         26008                       # Transaction distribution (Count)
system.tol2bus.pktCount_system.cpu.icache.mem_side_port::system.l2.cpu_side_port          954                       # Packet count per connected requestor and responder (Count)
system.tol2bus.pktCount_system.cpu.dcache.mem_side_port::system.l2.cpu_side_port        77753                       # Packet count per connected requestor and responder (Count)
system.tol2bus.pktCount::total                  78707                       # Packet count per connected requestor and responder (Count)
system.tol2bus.pktSize_system.cpu.icache.mem_side_port::system.l2.cpu_side_port        31104                       # Cumulative packet size per connected requestor and responder (Byte)
system.tol2bus.pktSize_system.cpu.dcache.mem_side_port::system.l2.cpu_side_port      2621824                       # Cumulative packet size per connected requestor and responder (Byte)
system.tol2bus.pktSize::total                 2652928                       # Cumulative packet size per connected requestor and responder (Byte)
system.tol2bus.snoops                               1                       # Total snoops (Count)
system.tol2bus.snoopTraffic                         0                       # Total snoop traffic (Byte)
system.tol2bus.snoopFanout::samples             26728                       # Request fanout histogram (Count)
system.tol2bus.snoopFanout::mean             0.000037                       # Request fanout histogram (Count)
system.tol2bus.snoopFanout::stdev            0.006117                       # Request fanout histogram (Count)
system.tol2bus.snoopFanout::underflows              0      0.00%      0.00% # Request fanout histogram (Count)
system.tol2bus.snoopFanout::0                   26727    100.00%    100.00% # Request fanout histogram (Count)
system.tol2bus.snoopFanout::1                       1      0.00%    100.00% # Request fanout histogram (Count)
system.tol2bus.snoopFanout::2                       0      0.00%    100.00% # Request fanout histogram (Count)
system.tol2bus.snoopFanout::3                       0      0.00%    100.00% # Request fanout histogram (Count)
system.tol2bus.snoopFanout::4                       0      0.00%    100.00% # Request fanout histogram (Count)
system.tol2bus.snoopFanout::overflows               0      0.00%    100.00% # Request fanout histogram (Count)
system.tol2bus.snoopFanout::min_value               0                       # Request fanout histogram (Count)
system.tol2bus.snoopFanout::max_value               1                       # Request fanout histogram (Count)
system.tol2bus.snoopFanout::total               26728                       # Request fanout histogram (Count)
system.tol2bus.power_state.pwrStateResidencyTicks::UNDEFINED   1748657500                       # Cumulative time (in ticks) in various power states (Tick)
system.tol2bus.reqLayer0.occupancy           40716500                       # Layer occupancy (ticks) (Tick)
system.tol2bus.reqLayer0.utilization              0.0                       # Layer utilization (Ratio)
system.tol2bus.respLayer0.occupancy            700500                       # Layer occupancy (ticks) (Tick)
system.tol2bus.respLayer0.utilization             0.0                       # Layer utilization (Ratio)
system.tol2bus.respLayer1.occupancy          39388500                       # Layer occupancy (ticks) (Tick)
system.tol2bus.respLayer1.utilization             0.0                       # Layer utilization (Ratio)
system.tol2bus.snoop_filter.totRequests         51981                       # Total number of requests made to the snoop filter. (Count)
system.tol2bus.snoop_filter.hitSingleRequests        25254                       # Number of requests hitting in the snoop filter with a single holder of the requested data. (Count)
system.tol2bus.snoop_filter.hitMultiRequests            0                       # Number of requests hitting in the snoop filter with multiple (>1) holders of the requested data. (Count)
system.tol2bus.snoop_filter.totSnoops               1                       # Total number of snoops made to the snoop filter. (Count)
system.tol2bus.snoop_filter.hitSingleSnoops            1                       # Number of snoops hitting in the snoop filter with a single holder of the requested data. (Count)
system.tol2bus.snoop_filter.hitMultiSnoops            0                       # Number of snoops hitting in the snoop filter with multiple (>1) holders of the requested data. (Count)
system.voltage_domain.voltage                       1                       # Voltage in Volts (Volt)
system.workload.inst.arm                            0                       # number of arm instructions executed (Count)
system.workload.inst.quiesce                        0                       # number of quiesce instructions executed (Count)

---------- End Simulation Statistics   ----------
