
---------- Begin Simulation Statistics ----------
simSeconds                                   0.054133                       # Number of seconds simulated (Second)
simTicks                                  54132707000                       # Number of ticks simulated (Tick)
finalTick                                 54132707000                       # Number of ticks from beginning of simulation (restored from checkpoints and never reset) (Tick)
simFreq                                  1000000000000                       # The number of ticks per simulated second ((Tick/Second))
hostSeconds                                    170.46                       # Real time elapsed on the host (Second)
hostTickRate                                317562709                       # The number of ticks simulated per host second (ticks/s) ((Tick/Second))
hostMemory                                     650692                       # Number of bytes of host memory used (Byte)
simInsts                                      9996000                       # Number of instructions simulated (Count)
simOps                                       17794323                       # Number of ops (including micro ops) simulated (Count)
hostInstRate                                    58640                       # Simulator instruction rate (inst/s) ((Count/Second))
hostOpRate                                     104388                       # Simulator op (including micro ops) rate (op/s) ((Count/Second))
system.clk_domain.clock                          1000                       # Clock period in ticks (Tick)
system.cpu.numCycles                         54132708                       # Number of cpu cycles simulated (Cycle)
system.cpu.numWorkItemsStarted                      0                       # Number of work items this cpu started (Count)
system.cpu.numWorkItemsCompleted                    0                       # Number of work items this cpu completed (Count)
system.cpu.instsAdded                        17873409                       # Number of instructions added to the IQ (excludes non-spec) (Count)
system.cpu.nonSpecInstsAdded                       34                       # Number of non-speculative instructions added to the IQ (Count)
system.cpu.instsIssued                       17844678                       # Number of instructions issued (Count)
system.cpu.squashedInstsIssued                   9840                       # Number of squashed instructions issued (Count)
system.cpu.squashedInstsExamined                79113                       # Number of squashed instructions iterated over during squash; mainly for profiling (Count)
system.cpu.squashedOperandsExamined             94606                       # Number of squashed operands that are examined and possibly removed from graph (Count)
system.cpu.squashedNonSpecRemoved                  22                       # Number of squashed non-spec instructions that were removed (Count)
system.cpu.numIssuedDist::samples            54122817                       # Number of insts issued each cycle (Count)
system.cpu.numIssuedDist::mean               0.329707                       # Number of insts issued each cycle (Count)
system.cpu.numIssuedDist::stdev              0.732360                       # Number of insts issued each cycle (Count)
system.cpu.numIssuedDist::underflows                0      0.00%      0.00% # Number of insts issued each cycle (Count)
system.cpu.numIssuedDist::0                  44811973     82.80%     82.80% # Number of insts issued each cycle (Count)
system.cpu.numIssuedDist::1                    777010      1.44%     84.23% # Number of insts issued each cycle (Count)
system.cpu.numIssuedDist::2                   8533834     15.77%    100.00% # Number of insts issued each cycle (Count)
system.cpu.numIssuedDist::overflows                 0      0.00%    100.00% # Number of insts issued each cycle (Count)
system.cpu.numIssuedDist::min_value                 0                       # Number of insts issued each cycle (Count)
system.cpu.numIssuedDist::max_value                 2                       # Number of insts issued each cycle (Count)
system.cpu.numIssuedDist::total              54122817                       # Number of insts issued each cycle (Count)
system.cpu.statFuBusy::No_OpClass                   0                       # attempts to use FU when none available (Count)
system.cpu.statFuBusy::IntAlu                       0                       # attempts to use FU when none available (Count)
system.cpu.statFuBusy::IntMult                      0                       # attempts to use FU when none available (Count)
system.cpu.statFuBusy::IntDiv                       0                       # attempts to use FU when none available (Count)
system.cpu.statFuBusy::FloatAdd                     0                       # attempts to use FU when none available (Count)
system.cpu.statFuBusy::FloatCmp                     0                       # attempts to use FU when none available (Count)
system.cpu.statFuBusy::FloatCvt                     0                       # attempts to use FU when none available (Count)
system.cpu.statFuBusy::FloatMult                    0                       # attempts to use FU when none available (Count)
system.cpu.statFuBusy::FloatMultAcc                 0                       # attempts to use FU when none available (Count)
system.cpu.statFuBusy::FloatDiv                     0                       # attempts to use FU when none available (Count)
system.cpu.statFuBusy::FloatMisc                    0                       # attempts to use FU when none available (Count)
system.cpu.statFuBusy::FloatSqrt                    0                       # attempts to use FU when none available (Count)
system.cpu.statFuBusy::SimdAdd                      0                       # attempts to use FU when none available (Count)
system.cpu.statFuBusy::SimdAddAcc                   0                       # attempts to use FU when none available (Count)
system.cpu.statFuBusy::SimdAlu                      0                       # attempts to use FU when none available (Count)
system.cpu.statFuBusy::SimdCmp                      0                       # attempts to use FU when none available (Count)
system.cpu.statFuBusy::SimdCvt                      0                       # attempts to use FU when none available (Count)
system.cpu.statFuBusy::SimdMisc                     0                       # attempts to use FU when none available (Count)
system.cpu.statFuBusy::SimdMult                     0                       # attempts to use FU when none available (Count)
system.cpu.statFuBusy::SimdMultAcc                  0                       # attempts to use FU when none available (Count)
system.cpu.statFuBusy::SimdShift                    0                       # attempts to use FU when none available (Count)
system.cpu.statFuBusy::SimdShiftAcc                 0                       # attempts to use FU when none available (Count)
system.cpu.statFuBusy::SimdDiv                      0                       # attempts to use FU when none available (Count)
system.cpu.statFuBusy::SimdSqrt                     0                       # attempts to use FU when none available (Count)
system.cpu.statFuBusy::SimdFloatAdd                 0                       # attempts to use FU when none available (Count)
system.cpu.statFuBusy::SimdFloatAlu                 0                       # attempts to use FU when none available (Count)
system.cpu.statFuBusy::SimdFloatCmp                 0                       # attempts to use FU when none available (Count)
system.cpu.statFuBusy::SimdFloatCvt                 0                       # attempts to use FU when none available (Count)
system.cpu.statFuBusy::SimdFloatDiv                 0                       # attempts to use FU when none available (Count)
system.cpu.statFuBusy::SimdFloatMisc                0                       # attempts to use FU when none available (Count)
system.cpu.statFuBusy::SimdFloatMult                0                       # attempts to use FU when none available (Count)
system.cpu.statFuBusy::SimdFloatMultAcc             0                       # attempts to use FU when none available (Count)
system.cpu.statFuBusy::SimdFloatSqrt                0                       # attempts to use FU when none available (Count)
system.cpu.statFuBusy::SimdReduceAdd                0                       # attempts to use FU when none available (Count)
system.cpu.statFuBusy::SimdReduceAlu                0                       # attempts to use FU when none available (Count)
system.cpu.statFuBusy::SimdReduceCmp                0                       # attempts to use FU when none available (Count)
system.cpu.statFuBusy::SimdFloatReduceAdd            0                       # attempts to use FU when none available (Count)
system.cpu.statFuBusy::SimdFloatReduceCmp            0                       # attempts to use FU when none available (Count)
system.cpu.statFuBusy::SimdAes                      0                       # attempts to use FU when none available (Count)
system.cpu.statFuBusy::SimdAesMix                   0                       # attempts to use FU when none available (Count)
system.cpu.statFuBusy::SimdSha1Hash                 0                       # attempts to use FU when none available (Count)
system.cpu.statFuBusy::SimdSha1Hash2                0                       # attempts to use FU when none available (Count)
system.cpu.statFuBusy::SimdSha256Hash               0                       # attempts to use FU when none available (Count)
system.cpu.statFuBusy::SimdSha256Hash2              0                       # attempts to use FU when none available (Count)
system.cpu.statFuBusy::SimdShaSigma2                0                       # attempts to use FU when none available (Count)
system.cpu.statFuBusy::SimdShaSigma3                0                       # attempts to use FU when none available (Count)
system.cpu.statFuBusy::SimdPredAlu                  0                       # attempts to use FU when none available (Count)
system.cpu.statFuBusy::MemRead                      0                       # attempts to use FU when none available (Count)
system.cpu.statFuBusy::MemWrite                     0                       # attempts to use FU when none available (Count)
system.cpu.statFuBusy::FloatMemRead                 0                       # attempts to use FU when none available (Count)
system.cpu.statFuBusy::FloatMemWrite                0                       # attempts to use FU when none available (Count)
system.cpu.statFuBusy::IprAccess                    0                       # attempts to use FU when none available (Count)
system.cpu.statFuBusy::InstPrefetch                 0                       # attempts to use FU when none available (Count)
system.cpu.statIssuedInstType_0::No_OpClass          467      0.00%      0.00% # Number of instructions issued per FU type, per thread (Count)
system.cpu.statIssuedInstType_0::IntAlu      14008102     78.50%     78.50% # Number of instructions issued per FU type, per thread (Count)
system.cpu.statIssuedInstType_0::IntMult         1484      0.01%     78.51% # Number of instructions issued per FU type, per thread (Count)
system.cpu.statIssuedInstType_0::IntDiv            28      0.00%     78.51% # Number of instructions issued per FU type, per thread (Count)
system.cpu.statIssuedInstType_0::FloatAdd          141      0.00%     78.51% # Number of instructions issued per FU type, per thread (Count)
system.cpu.statIssuedInstType_0::FloatCmp            0      0.00%     78.51% # Number of instructions issued per FU type, per thread (Count)
system.cpu.statIssuedInstType_0::FloatCvt            0      0.00%     78.51% # Number of instructions issued per FU type, per thread (Count)
system.cpu.statIssuedInstType_0::FloatMult            0      0.00%     78.51% # Number of instructions issued per FU type, per thread (Count)
system.cpu.statIssuedInstType_0::FloatMultAcc            0      0.00%     78.51% # Number of instructions issued per FU type, per thread (Count)
system.cpu.statIssuedInstType_0::FloatDiv            0      0.00%     78.51% # Number of instructions issued per FU type, per thread (Count)
system.cpu.statIssuedInstType_0::FloatMisc            0      0.00%     78.51% # Number of instructions issued per FU type, per thread (Count)
system.cpu.statIssuedInstType_0::FloatSqrt            0      0.00%     78.51% # Number of instructions issued per FU type, per thread (Count)
system.cpu.statIssuedInstType_0::SimdAdd       499996      2.80%     81.31% # Number of instructions issued per FU type, per thread (Count)
system.cpu.statIssuedInstType_0::SimdAddAcc            0      0.00%     81.31% # Number of instructions issued per FU type, per thread (Count)
system.cpu.statIssuedInstType_0::SimdAlu       125176      0.70%     82.02% # Number of instructions issued per FU type, per thread (Count)
system.cpu.statIssuedInstType_0::SimdCmp            0      0.00%     82.02% # Number of instructions issued per FU type, per thread (Count)
system.cpu.statIssuedInstType_0::SimdCvt       125045      0.70%     82.72% # Number of instructions issued per FU type, per thread (Count)
system.cpu.statIssuedInstType_0::SimdMisc       750205      4.20%     86.92% # Number of instructions issued per FU type, per thread (Count)
system.cpu.statIssuedInstType_0::SimdMult            0      0.00%     86.92% # Number of instructions issued per FU type, per thread (Count)
system.cpu.statIssuedInstType_0::SimdMultAcc            0      0.00%     86.92% # Number of instructions issued per FU type, per thread (Count)
system.cpu.statIssuedInstType_0::SimdShift            6      0.00%     86.92% # Number of instructions issued per FU type, per thread (Count)
system.cpu.statIssuedInstType_0::SimdShiftAcc            0      0.00%     86.92% # Number of instructions issued per FU type, per thread (Count)
system.cpu.statIssuedInstType_0::SimdDiv            0      0.00%     86.92% # Number of instructions issued per FU type, per thread (Count)
system.cpu.statIssuedInstType_0::SimdSqrt            0      0.00%     86.92% # Number of instructions issued per FU type, per thread (Count)
system.cpu.statIssuedInstType_0::SimdFloatAdd            0      0.00%     86.92% # Number of instructions issued per FU type, per thread (Count)
system.cpu.statIssuedInstType_0::SimdFloatAlu            0      0.00%     86.92% # Number of instructions issued per FU type, per thread (Count)
system.cpu.statIssuedInstType_0::SimdFloatCmp            0      0.00%     86.92% # Number of instructions issued per FU type, per thread (Count)
system.cpu.statIssuedInstType_0::SimdFloatCvt            0      0.00%     86.92% # Number of instructions issued per FU type, per thread (Count)
system.cpu.statIssuedInstType_0::SimdFloatDiv            0      0.00%     86.92% # Number of instructions issued per FU type, per thread (Count)
system.cpu.statIssuedInstType_0::SimdFloatMisc            0      0.00%     86.92% # Number of instructions issued per FU type, per thread (Count)
system.cpu.statIssuedInstType_0::SimdFloatMult            0      0.00%     86.92% # Number of instructions issued per FU type, per thread (Count)
system.cpu.statIssuedInstType_0::SimdFloatMultAcc            0      0.00%     86.92% # Number of instructions issued per FU type, per thread (Count)
system.cpu.statIssuedInstType_0::SimdFloatSqrt            0      0.00%     86.92% # Number of instructions issued per FU type, per thread (Count)
system.cpu.statIssuedInstType_0::SimdReduceAdd            0      0.00%     86.92% # Number of instructions issued per FU type, per thread (Count)
system.cpu.statIssuedInstType_0::SimdReduceAlu            0      0.00%     86.92% # Number of instructions issued per FU type, per thread (Count)
system.cpu.statIssuedInstType_0::SimdReduceCmp            0      0.00%     86.92% # Number of instructions issued per FU type, per thread (Count)
system.cpu.statIssuedInstType_0::SimdFloatReduceAdd            0      0.00%     86.92% # Number of instructions issued per FU type, per thread (Count)
system.cpu.statIssuedInstType_0::SimdFloatReduceCmp            0      0.00%     86.92% # Number of instructions issued per FU type, per thread (Count)
system.cpu.statIssuedInstType_0::SimdAes            0      0.00%     86.92% # Number of instructions issued per FU type, per thread (Count)
system.cpu.statIssuedInstType_0::SimdAesMix            0      0.00%     86.92% # Number of instructions issued per FU type, per thread (Count)
system.cpu.statIssuedInstType_0::SimdSha1Hash            0      0.00%     86.92% # Number of instructions issued per FU type, per thread (Count)
system.cpu.statIssuedInstType_0::SimdSha1Hash2            0      0.00%     86.92% # Number of instructions issued per FU type, per thread (Count)
system.cpu.statIssuedInstType_0::SimdSha256Hash            0      0.00%     86.92% # Number of instructions issued per FU type, per thread (Count)
system.cpu.statIssuedInstType_0::SimdSha256Hash2            0      0.00%     86.92% # Number of instructions issued per FU type, per thread (Count)
system.cpu.statIssuedInstType_0::SimdShaSigma2            0      0.00%     86.92% # Number of instructions issued per FU type, per thread (Count)
system.cpu.statIssuedInstType_0::SimdShaSigma3            0      0.00%     86.92% # Number of instructions issued per FU type, per thread (Count)
system.cpu.statIssuedInstType_0::SimdPredAlu            0      0.00%     86.92% # Number of instructions issued per FU type, per thread (Count)
system.cpu.statIssuedInstType_0::MemRead         3575      0.02%     86.94% # Number of instructions issued per FU type, per thread (Count)
system.cpu.statIssuedInstType_0::MemWrite      2204905     12.36%     99.30% # Number of instructions issued per FU type, per thread (Count)
system.cpu.statIssuedInstType_0::FloatMemRead       125055      0.70%    100.00% # Number of instructions issued per FU type, per thread (Count)
system.cpu.statIssuedInstType_0::FloatMemWrite          493      0.00%    100.00% # Number of instructions issued per FU type, per thread (Count)
system.cpu.statIssuedInstType_0::IprAccess            0      0.00%    100.00% # Number of instructions issued per FU type, per thread (Count)
system.cpu.statIssuedInstType_0::InstPrefetch            0      0.00%    100.00% # Number of instructions issued per FU type, per thread (Count)
system.cpu.statIssuedInstType_0::total       17844678                       # Number of instructions issued per FU type, per thread (Count)
system.cpu.issueRate                         0.329647                       # Inst issue rate ((Count/Cycle))
system.cpu.fuBusy                                   0                       # FU busy when requested (Count)
system.cpu.fuBusyRate                               0                       # FU busy rate (busy events/executed inst) ((Count/Count))
system.cpu.intInstQueueReads                 85819417                       # Number of integer instruction queue reads (Count)
system.cpu.intInstQueueWrites                15950687                       # Number of integer instruction queue writes (Count)
system.cpu.intInstQueueWakeupAccesses        15838395                       # Number of integer instruction queue wakeup accesses (Count)
system.cpu.fpInstQueueReads                   4002595                       # Number of floating instruction queue reads (Count)
system.cpu.fpInstQueueWrites                  2001874                       # Number of floating instruction queue writes (Count)
system.cpu.fpInstQueueWakeupAccesses          2001222                       # Number of floating instruction queue wakeup accesses (Count)
system.cpu.vecInstQueueReads                        0                       # Number of vector instruction queue reads (Count)
system.cpu.vecInstQueueWrites                       0                       # Number of vector instruction queue writes (Count)
system.cpu.vecInstQueueWakeupAccesses               0                       # Number of vector instruction queue wakeup accesses (Count)
system.cpu.intAluAccesses                    15842956                       # Number of integer alu accesses (Count)
system.cpu.fpAluAccesses                      2001255                       # Number of floating point alu accesses (Count)
system.cpu.vecAluAccesses                           0                       # Number of vector alu accesses (Count)
system.cpu.numInsts                          17844158                       # Number of executed instructions (Count)
system.cpu.numLoadInsts                        128546                       # Number of load instructions executed (Count)
system.cpu.numSquashedInsts                       519                       # Number of squashed instructions skipped in execute (Count)
system.cpu.numSwp                                   0                       # Number of swp insts executed (Count)
system.cpu.numNop                                   0                       # Number of nop insts executed (Count)
system.cpu.numRefs                            2333608                       # Number of memory reference insts executed (Count)
system.cpu.numBranches                        2270529                       # Number of branches executed (Count)
system.cpu.numStoreInsts                      2205062                       # Number of stores executed (Count)
system.cpu.numRate                           0.329637                       # Inst execution rate ((Count/Cycle))
system.cpu.timesIdled                             281                       # Number of times that the entire CPU went into an idle state and unscheduled itself (Count)
system.cpu.idleCycles                            9891                       # Total number of cycles that the CPU has spent unscheduled due to idling (Cycle)
system.cpu.committedInsts                     9996000                       # Number of Instructions Simulated (Count)
system.cpu.committedOps                      17794323                       # Number of Ops (including micro ops) Simulated (Count)
system.cpu.cpi                               5.415437                       # CPI: Cycles Per Instruction ((Cycle/Count))
system.cpu.totalCpi                          5.415437                       # CPI: Total CPI of All Threads ((Cycle/Count))
system.cpu.ipc                               0.184657                       # IPC: Instructions Per Cycle ((Count/Cycle))
system.cpu.totalIpc                          0.184657                       # IPC: Total IPC of All Threads ((Count/Cycle))
system.cpu.intRegfileReads                   22725822                       # Number of integer regfile reads (Count)
system.cpu.intRegfileWrites                  11368640                       # Number of integer regfile writes (Count)
system.cpu.fpRegfileReads                     4376477                       # Number of floating regfile reads (Count)
system.cpu.fpRegfileWrites                    2000707                       # Number of floating regfile writes (Count)
system.cpu.ccRegfileReads                    11352015                       # number of cc regfile reads (Count)
system.cpu.ccRegfileWrites                    9079065                       # number of cc regfile writes (Count)
system.cpu.miscRegfileReads                   6875725                       # number of misc regfile reads (Count)
system.cpu.MemDepUnit__0.insertedLoads         130433                       # Number of loads inserted to the mem dependence unit. (Count)
system.cpu.MemDepUnit__0.insertedStores       2207881                       # Number of stores inserted to the mem dependence unit. (Count)
system.cpu.MemDepUnit__0.conflictingLoads           16                       # Number of conflicting loads. (Count)
system.cpu.MemDepUnit__0.conflictingStores           14                       # Number of conflicting stores. (Count)
system.cpu.MemDepUnit__1.insertedLoads              0                       # Number of loads inserted to the mem dependence unit. (Count)
system.cpu.MemDepUnit__1.insertedStores             0                       # Number of stores inserted to the mem dependence unit. (Count)
system.cpu.MemDepUnit__1.conflictingLoads            0                       # Number of conflicting loads. (Count)
system.cpu.MemDepUnit__1.conflictingStores            0                       # Number of conflicting stores. (Count)
system.cpu.MemDepUnit__2.insertedLoads              0                       # Number of loads inserted to the mem dependence unit. (Count)
system.cpu.MemDepUnit__2.insertedStores             0                       # Number of stores inserted to the mem dependence unit. (Count)
system.cpu.MemDepUnit__2.conflictingLoads            0                       # Number of conflicting loads. (Count)
system.cpu.MemDepUnit__2.conflictingStores            0                       # Number of conflicting stores. (Count)
system.cpu.MemDepUnit__3.insertedLoads              0                       # Number of loads inserted to the mem dependence unit. (Count)
system.cpu.MemDepUnit__3.insertedStores             0                       # Number of stores inserted to the mem dependence unit. (Count)
system.cpu.MemDepUnit__3.conflictingLoads            0                       # Number of conflicting loads. (Count)
system.cpu.MemDepUnit__3.conflictingStores            0                       # Number of conflicting stores. (Count)
system.cpu.branchPred.lookups                 2279541                       # Number of BP lookups (Count)
system.cpu.branchPred.condPredicted           2278000                       # Number of conditional branches predicted (Count)
system.cpu.branchPred.condIncorrect              1048                       # Number of conditional branches incorrect (Count)
system.cpu.branchPred.BTBLookups              2274537                       # Number of BTB lookups (Count)
system.cpu.branchPred.BTBHits                 2273671                       # Number of BTB hits (Count)
system.cpu.branchPred.BTBHitRatio            0.999619                       # BTB Hit Ratio (Ratio)
system.cpu.branchPred.RASUsed                     315                       # Number of times the RAS was used to get a target. (Count)
system.cpu.branchPred.RASIncorrect                  0                       # Number of incorrect RAS predictions. (Count)
system.cpu.branchPred.indirectLookups             477                       # Number of indirect predictor lookups. (Count)
system.cpu.branchPred.indirectHits                 14                       # Number of indirect target hits. (Count)
system.cpu.branchPred.indirectMisses              463                       # Number of indirect misses. (Count)
system.cpu.branchPred.indirectMispredicted           88                       # Number of mispredicted indirect branches. (Count)
system.cpu.commit.commitSquashedInsts           73468                       # The number of squashed insts skipped by commit (Count)
system.cpu.commit.commitNonSpecStalls              12                       # The number of times commit has been forced to stall to communicate backwards (Count)
system.cpu.commit.branchMispredicts               889                       # The number of times a branch was mispredicted (Count)
system.cpu.commit.numCommittedDist::samples     54112945                       # Number of insts commited each cycle (Count)
system.cpu.commit.numCommittedDist::mean     0.328837                       # Number of insts commited each cycle (Count)
system.cpu.commit.numCommittedDist::stdev     0.817966                       # Number of insts commited each cycle (Count)
system.cpu.commit.numCommittedDist::underflows            0      0.00%      0.00% # Number of insts commited each cycle (Count)
system.cpu.commit.numCommittedDist::0        45098195     83.34%     83.34% # Number of insts commited each cycle (Count)
system.cpu.commit.numCommittedDist::1         2456145      4.54%     87.88% # Number of insts commited each cycle (Count)
system.cpu.commit.numCommittedDist::2         4783514      8.84%     96.72% # Number of insts commited each cycle (Count)
system.cpu.commit.numCommittedDist::3         1631612      3.02%     99.73% # Number of insts commited each cycle (Count)
system.cpu.commit.numCommittedDist::4           32333      0.06%     99.79% # Number of insts commited each cycle (Count)
system.cpu.commit.numCommittedDist::5           47310      0.09%     99.88% # Number of insts commited each cycle (Count)
system.cpu.commit.numCommittedDist::6             103      0.00%     99.88% # Number of insts commited each cycle (Count)
system.cpu.commit.numCommittedDist::7              50      0.00%     99.88% # Number of insts commited each cycle (Count)
system.cpu.commit.numCommittedDist::8           63683      0.12%    100.00% # Number of insts commited each cycle (Count)
system.cpu.commit.numCommittedDist::overflows            0      0.00%    100.00% # Number of insts commited each cycle (Count)
system.cpu.commit.numCommittedDist::min_value            0                       # Number of insts commited each cycle (Count)
system.cpu.commit.numCommittedDist::max_value            8                       # Number of insts commited each cycle (Count)
system.cpu.commit.numCommittedDist::total     54112945                       # Number of insts commited each cycle (Count)
system.cpu.commit.instsCommitted              9996000                       # Number of instructions committed (Count)
system.cpu.commit.opsCommitted               17794323                       # Number of ops (including micro ops) committed (Count)
system.cpu.commit.memRefs                     2327019                       # Number of memory references committed (Count)
system.cpu.commit.loads                        127545                       # Number of loads committed (Count)
system.cpu.commit.amos                              0                       # Number of atomic instructions committed (Count)
system.cpu.commit.membars                           8                       # Number of memory barriers committed (Count)
system.cpu.commit.branches                    2264230                       # Number of branches committed (Count)
system.cpu.commit.vectorInstructions                0                       # Number of committed Vector instructions. (Count)
system.cpu.commit.floating                    2001126                       # Number of committed floating point instructions. (Count)
system.cpu.commit.integer                    15918574                       # Number of committed integer instructions. (Count)
system.cpu.commit.functionCalls                   148                       # Number of function calls committed. (Count)
system.cpu.commit.committedInstType_0::No_OpClass          192      0.00%      0.00% # Class of committed instruction (Count)
system.cpu.commit.committedInstType_0::IntAlu     13965602     78.48%     78.48% # Class of committed instruction (Count)
system.cpu.commit.committedInstType_0::IntMult         1004      0.01%     78.49% # Class of committed instruction (Count)
system.cpu.commit.committedInstType_0::IntDiv           21      0.00%     78.49% # Class of committed instruction (Count)
system.cpu.commit.committedInstType_0::FloatAdd          135      0.00%     78.49% # Class of committed instruction (Count)
system.cpu.commit.committedInstType_0::FloatCmp            0      0.00%     78.49% # Class of committed instruction (Count)
system.cpu.commit.committedInstType_0::FloatCvt            0      0.00%     78.49% # Class of committed instruction (Count)
system.cpu.commit.committedInstType_0::FloatMult            0      0.00%     78.49% # Class of committed instruction (Count)
system.cpu.commit.committedInstType_0::FloatMultAcc            0      0.00%     78.49% # Class of committed instruction (Count)
system.cpu.commit.committedInstType_0::FloatDiv            0      0.00%     78.49% # Class of committed instruction (Count)
system.cpu.commit.committedInstType_0::FloatMisc            0      0.00%     78.49% # Class of committed instruction (Count)
system.cpu.commit.committedInstType_0::FloatSqrt            0      0.00%     78.49% # Class of committed instruction (Count)
system.cpu.commit.committedInstType_0::SimdAdd       499996      2.81%     81.30% # Class of committed instruction (Count)
system.cpu.commit.committedInstType_0::SimdAddAcc            0      0.00%     81.30% # Class of committed instruction (Count)
system.cpu.commit.committedInstType_0::SimdAlu       125100      0.70%     82.00% # Class of committed instruction (Count)
system.cpu.commit.committedInstType_0::SimdCmp            0      0.00%     82.00% # Class of committed instruction (Count)
system.cpu.commit.committedInstType_0::SimdCvt       125044      0.70%     82.71% # Class of committed instruction (Count)
system.cpu.commit.committedInstType_0::SimdMisc       750204      4.22%     86.92% # Class of committed instruction (Count)
system.cpu.commit.committedInstType_0::SimdMult            0      0.00%     86.92% # Class of committed instruction (Count)
system.cpu.commit.committedInstType_0::SimdMultAcc            0      0.00%     86.92% # Class of committed instruction (Count)
system.cpu.commit.committedInstType_0::SimdShift            6      0.00%     86.92% # Class of committed instruction (Count)
system.cpu.commit.committedInstType_0::SimdShiftAcc            0      0.00%     86.92% # Class of committed instruction (Count)
system.cpu.commit.committedInstType_0::SimdDiv            0      0.00%     86.92% # Class of committed instruction (Count)
system.cpu.commit.committedInstType_0::SimdSqrt            0      0.00%     86.92% # Class of committed instruction (Count)
system.cpu.commit.committedInstType_0::SimdFloatAdd            0      0.00%     86.92% # Class of committed instruction (Count)
system.cpu.commit.committedInstType_0::SimdFloatAlu            0      0.00%     86.92% # Class of committed instruction (Count)
system.cpu.commit.committedInstType_0::SimdFloatCmp            0      0.00%     86.92% # Class of committed instruction (Count)
system.cpu.commit.committedInstType_0::SimdFloatCvt            0      0.00%     86.92% # Class of committed instruction (Count)
system.cpu.commit.committedInstType_0::SimdFloatDiv            0      0.00%     86.92% # Class of committed instruction (Count)
system.cpu.commit.committedInstType_0::SimdFloatMisc            0      0.00%     86.92% # Class of committed instruction (Count)
system.cpu.commit.committedInstType_0::SimdFloatMult            0      0.00%     86.92% # Class of committed instruction (Count)
system.cpu.commit.committedInstType_0::SimdFloatMultAcc            0      0.00%     86.92% # Class of committed instruction (Count)
system.cpu.commit.committedInstType_0::SimdFloatSqrt            0      0.00%     86.92% # Class of committed instruction (Count)
system.cpu.commit.committedInstType_0::SimdReduceAdd            0      0.00%     86.92% # Class of committed instruction (Count)
system.cpu.commit.committedInstType_0::SimdReduceAlu            0      0.00%     86.92% # Class of committed instruction (Count)
system.cpu.commit.committedInstType_0::SimdReduceCmp            0      0.00%     86.92% # Class of committed instruction (Count)
system.cpu.commit.committedInstType_0::SimdFloatReduceAdd            0      0.00%     86.92% # Class of committed instruction (Count)
system.cpu.commit.committedInstType_0::SimdFloatReduceCmp            0      0.00%     86.92% # Class of committed instruction (Count)
system.cpu.commit.committedInstType_0::SimdAes            0      0.00%     86.92% # Class of committed instruction (Count)
system.cpu.commit.committedInstType_0::SimdAesMix            0      0.00%     86.92% # Class of committed instruction (Count)
system.cpu.commit.committedInstType_0::SimdSha1Hash            0      0.00%     86.92% # Class of committed instruction (Count)
system.cpu.commit.committedInstType_0::SimdSha1Hash2            0      0.00%     86.92% # Class of committed instruction (Count)
system.cpu.commit.committedInstType_0::SimdSha256Hash            0      0.00%     86.92% # Class of committed instruction (Count)
system.cpu.commit.committedInstType_0::SimdSha256Hash2            0      0.00%     86.92% # Class of committed instruction (Count)
system.cpu.commit.committedInstType_0::SimdShaSigma2            0      0.00%     86.92% # Class of committed instruction (Count)
system.cpu.commit.committedInstType_0::SimdShaSigma3            0      0.00%     86.92% # Class of committed instruction (Count)
system.cpu.commit.committedInstType_0::SimdPredAlu            0      0.00%     86.92% # Class of committed instruction (Count)
system.cpu.commit.committedInstType_0::MemRead         2499      0.01%     86.94% # Class of committed instruction (Count)
system.cpu.commit.committedInstType_0::MemWrite      2199016     12.36%     99.29% # Class of committed instruction (Count)
system.cpu.commit.committedInstType_0::FloatMemRead       125046      0.70%    100.00% # Class of committed instruction (Count)
system.cpu.commit.committedInstType_0::FloatMemWrite          458      0.00%    100.00% # Class of committed instruction (Count)
system.cpu.commit.committedInstType_0::IprAccess            0      0.00%    100.00% # Class of committed instruction (Count)
system.cpu.commit.committedInstType_0::InstPrefetch            0      0.00%    100.00% # Class of committed instruction (Count)
system.cpu.commit.committedInstType_0::total     17794323                       # Class of committed instruction (Count)
system.cpu.commit.commitEligibleSamples         63683                       # number cycles where commit BW limit reached (Cycle)
system.cpu.dcache.demandHits::cpu.data        1501383                       # number of demand (read+write) hits (Count)
system.cpu.dcache.demandHits::total           1501383                       # number of demand (read+write) hits (Count)
system.cpu.dcache.overallHits::cpu.data       1501383                       # number of overall hits (Count)
system.cpu.dcache.overallHits::total          1501383                       # number of overall hits (Count)
system.cpu.dcache.demandMisses::cpu.data       842109                       # number of demand (read+write) misses (Count)
system.cpu.dcache.demandMisses::total          842109                       # number of demand (read+write) misses (Count)
system.cpu.dcache.overallMisses::cpu.data       842109                       # number of overall misses (Count)
system.cpu.dcache.overallMisses::total         842109                       # number of overall misses (Count)
system.cpu.dcache.demandMissLatency::cpu.data  53374194999                       # number of demand (read+write) miss ticks (Tick)
system.cpu.dcache.demandMissLatency::total  53374194999                       # number of demand (read+write) miss ticks (Tick)
system.cpu.dcache.overallMissLatency::cpu.data  53374194999                       # number of overall miss ticks (Tick)
system.cpu.dcache.overallMissLatency::total  53374194999                       # number of overall miss ticks (Tick)
system.cpu.dcache.demandAccesses::cpu.data      2343492                       # number of demand (read+write) accesses (Count)
system.cpu.dcache.demandAccesses::total       2343492                       # number of demand (read+write) accesses (Count)
system.cpu.dcache.overallAccesses::cpu.data      2343492                       # number of overall (read+write) accesses (Count)
system.cpu.dcache.overallAccesses::total      2343492                       # number of overall (read+write) accesses (Count)
system.cpu.dcache.demandMissRate::cpu.data     0.359339                       # miss rate for demand accesses (Ratio)
system.cpu.dcache.demandMissRate::total      0.359339                       # miss rate for demand accesses (Ratio)
system.cpu.dcache.overallMissRate::cpu.data     0.359339                       # miss rate for overall accesses (Ratio)
system.cpu.dcache.overallMissRate::total     0.359339                       # miss rate for overall accesses (Ratio)
system.cpu.dcache.demandAvgMissLatency::cpu.data 63381.575306                       # average overall miss latency ((Cycle/Count))
system.cpu.dcache.demandAvgMissLatency::total 63381.575306                       # average overall miss latency ((Cycle/Count))
system.cpu.dcache.overallAvgMissLatency::cpu.data 63381.575306                       # average overall miss latency ((Cycle/Count))
system.cpu.dcache.overallAvgMissLatency::total 63381.575306                       # average overall miss latency ((Cycle/Count))
system.cpu.dcache.blockedCycles::no_mshrs          267                       # number of cycles access was blocked (Cycle)
system.cpu.dcache.blockedCycles::no_targets            0                       # number of cycles access was blocked (Cycle)
system.cpu.dcache.blockedCauses::no_mshrs           14                       # number of times access was blocked (Count)
system.cpu.dcache.blockedCauses::no_targets            0                       # number of times access was blocked (Count)
system.cpu.dcache.avgBlocked::no_mshrs      19.071429                       # average number of cycles each access was blocked ((Cycle/Count))
system.cpu.dcache.avgBlocked::no_targets          nan                       # average number of cycles each access was blocked ((Cycle/Count))
system.cpu.dcache.writebacks::writebacks       762744                       # number of writebacks (Count)
system.cpu.dcache.writebacks::total            762744                       # number of writebacks (Count)
system.cpu.dcache.demandMshrHits::cpu.data        63494                       # number of demand (read+write) MSHR hits (Count)
system.cpu.dcache.demandMshrHits::total         63494                       # number of demand (read+write) MSHR hits (Count)
system.cpu.dcache.overallMshrHits::cpu.data        63494                       # number of overall MSHR hits (Count)
system.cpu.dcache.overallMshrHits::total        63494                       # number of overall MSHR hits (Count)
system.cpu.dcache.demandMshrMisses::cpu.data       778615                       # number of demand (read+write) MSHR misses (Count)
system.cpu.dcache.demandMshrMisses::total       778615                       # number of demand (read+write) MSHR misses (Count)
system.cpu.dcache.overallMshrMisses::cpu.data       778615                       # number of overall MSHR misses (Count)
system.cpu.dcache.overallMshrMisses::total       778615                       # number of overall MSHR misses (Count)
system.cpu.dcache.demandMshrMissLatency::cpu.data  48734839999                       # number of demand (read+write) MSHR miss ticks (Tick)
system.cpu.dcache.demandMshrMissLatency::total  48734839999                       # number of demand (read+write) MSHR miss ticks (Tick)
system.cpu.dcache.overallMshrMissLatency::cpu.data  48734839999                       # number of overall MSHR miss ticks (Tick)
system.cpu.dcache.overallMshrMissLatency::total  48734839999                       # number of overall MSHR miss ticks (Tick)
system.cpu.dcache.demandMshrMissRate::cpu.data     0.332246                       # mshr miss ratio for demand accesses (Ratio)
system.cpu.dcache.demandMshrMissRate::total     0.332246                       # mshr miss ratio for demand accesses (Ratio)
system.cpu.dcache.overallMshrMissRate::cpu.data     0.332246                       # mshr miss ratio for overall accesses (Ratio)
system.cpu.dcache.overallMshrMissRate::total     0.332246                       # mshr miss ratio for overall accesses (Ratio)
system.cpu.dcache.demandAvgMshrMissLatency::cpu.data 62591.704500                       # average overall mshr miss latency ((Cycle/Count))
system.cpu.dcache.demandAvgMshrMissLatency::total 62591.704500                       # average overall mshr miss latency ((Cycle/Count))
system.cpu.dcache.overallAvgMshrMissLatency::cpu.data 62591.704500                       # average overall mshr miss latency ((Cycle/Count))
system.cpu.dcache.overallAvgMshrMissLatency::total 62591.704500                       # average overall mshr miss latency ((Cycle/Count))
system.cpu.dcache.replacements                 777591                       # number of replacements (Count)
system.cpu.dcache.ReadReq.hits::cpu.data        64620                       # number of ReadReq hits (Count)
system.cpu.dcache.ReadReq.hits::total           64620                       # number of ReadReq hits (Count)
system.cpu.dcache.ReadReq.misses::cpu.data        79397                       # number of ReadReq misses (Count)
system.cpu.dcache.ReadReq.misses::total         79397                       # number of ReadReq misses (Count)
system.cpu.dcache.ReadReq.missLatency::cpu.data   3997580000                       # number of ReadReq miss ticks (Tick)
system.cpu.dcache.ReadReq.missLatency::total   3997580000                       # number of ReadReq miss ticks (Tick)
system.cpu.dcache.ReadReq.accesses::cpu.data       144017                       # number of ReadReq accesses(hits+misses) (Count)
system.cpu.dcache.ReadReq.accesses::total       144017                       # number of ReadReq accesses(hits+misses) (Count)
system.cpu.dcache.ReadReq.missRate::cpu.data     0.551303                       # miss rate for ReadReq accesses (Ratio)
system.cpu.dcache.ReadReq.missRate::total     0.551303                       # miss rate for ReadReq accesses (Ratio)
system.cpu.dcache.ReadReq.avgMissLatency::cpu.data 50349.257529                       # average ReadReq miss latency ((Tick/Count))
system.cpu.dcache.ReadReq.avgMissLatency::total 50349.257529                       # average ReadReq miss latency ((Tick/Count))
system.cpu.dcache.ReadReq.mshrHits::cpu.data        63491                       # number of ReadReq MSHR hits (Count)
system.cpu.dcache.ReadReq.mshrHits::total        63491                       # number of ReadReq MSHR hits (Count)
system.cpu.dcache.ReadReq.mshrMisses::cpu.data        15906                       # number of ReadReq MSHR misses (Count)
system.cpu.dcache.ReadReq.mshrMisses::total        15906                       # number of ReadReq MSHR misses (Count)
system.cpu.dcache.ReadReq.mshrMissLatency::cpu.data    883751000                       # number of ReadReq MSHR miss ticks (Tick)
system.cpu.dcache.ReadReq.mshrMissLatency::total    883751000                       # number of ReadReq MSHR miss ticks (Tick)
system.cpu.dcache.ReadReq.mshrMissRate::cpu.data     0.110445                       # mshr miss rate for ReadReq accesses (Ratio)
system.cpu.dcache.ReadReq.mshrMissRate::total     0.110445                       # mshr miss rate for ReadReq accesses (Ratio)
system.cpu.dcache.ReadReq.avgMshrMissLatency::cpu.data 55560.857538                       # average ReadReq mshr miss latency ((Tick/Count))
system.cpu.dcache.ReadReq.avgMshrMissLatency::total 55560.857538                       # average ReadReq mshr miss latency ((Tick/Count))
system.cpu.dcache.WriteReq.hits::cpu.data      1436763                       # number of WriteReq hits (Count)
system.cpu.dcache.WriteReq.hits::total        1436763                       # number of WriteReq hits (Count)
system.cpu.dcache.WriteReq.misses::cpu.data       762712                       # number of WriteReq misses (Count)
system.cpu.dcache.WriteReq.misses::total       762712                       # number of WriteReq misses (Count)
system.cpu.dcache.WriteReq.missLatency::cpu.data  49376614999                       # number of WriteReq miss ticks (Tick)
system.cpu.dcache.WriteReq.missLatency::total  49376614999                       # number of WriteReq miss ticks (Tick)
system.cpu.dcache.WriteReq.accesses::cpu.data      2199475                       # number of WriteReq accesses(hits+misses) (Count)
system.cpu.dcache.WriteReq.accesses::total      2199475                       # number of WriteReq accesses(hits+misses) (Count)
system.cpu.dcache.WriteReq.missRate::cpu.data     0.346770                       # miss rate for WriteReq accesses (Ratio)
system.cpu.dcache.WriteReq.missRate::total     0.346770                       # miss rate for WriteReq accesses (Ratio)
system.cpu.dcache.WriteReq.avgMissLatency::cpu.data 64738.217045                       # average WriteReq miss latency ((Tick/Count))
system.cpu.dcache.WriteReq.avgMissLatency::total 64738.217045                       # average WriteReq miss latency ((Tick/Count))
system.cpu.dcache.WriteReq.mshrHits::cpu.data            3                       # number of WriteReq MSHR hits (Count)
system.cpu.dcache.WriteReq.mshrHits::total            3                       # number of WriteReq MSHR hits (Count)
system.cpu.dcache.WriteReq.mshrMisses::cpu.data       762709                       # number of WriteReq MSHR misses (Count)
system.cpu.dcache.WriteReq.mshrMisses::total       762709                       # number of WriteReq MSHR misses (Count)
system.cpu.dcache.WriteReq.mshrMissLatency::cpu.data  47851088999                       # number of WriteReq MSHR miss ticks (Tick)
system.cpu.dcache.WriteReq.mshrMissLatency::total  47851088999                       # number of WriteReq MSHR miss ticks (Tick)
system.cpu.dcache.WriteReq.mshrMissRate::cpu.data     0.346769                       # mshr miss rate for WriteReq accesses (Ratio)
system.cpu.dcache.WriteReq.mshrMissRate::total     0.346769                       # mshr miss rate for WriteReq accesses (Ratio)
system.cpu.dcache.WriteReq.avgMshrMissLatency::cpu.data 62738.330083                       # average WriteReq mshr miss latency ((Tick/Count))
system.cpu.dcache.WriteReq.avgMshrMissLatency::total 62738.330083                       # average WriteReq mshr miss latency ((Tick/Count))
system.cpu.dcache.power_state.pwrStateResidencyTicks::UNDEFINED  54132707000                       # Cumulative time (in ticks) in various power states (Tick)
system.cpu.dcache.tags.tagsInUse          1022.628467                       # Average ticks per tags in use ((Tick/Count))
system.cpu.dcache.tags.totalRefs              2279998                       # Total number of references to valid blocks. (Count)
system.cpu.dcache.tags.sampledRefs             778615                       # Sample count of references to valid blocks. (Count)
system.cpu.dcache.tags.avgRefs               2.928274                       # Average number of references to valid blocks. ((Count/Count))
system.cpu.dcache.tags.warmupTick              151000                       # The tick when the warmup percentage was hit. (Tick)
system.cpu.dcache.tags.occupancies::cpu.data  1022.628467                       # Average occupied blocks per tick, per requestor ((Count/Tick))
system.cpu.dcache.tags.avgOccs::cpu.data     0.998661                       # Average percentage of cache occupancy ((Ratio/Tick))
system.cpu.dcache.tags.avgOccs::total        0.998661                       # Average percentage of cache occupancy ((Ratio/Tick))
system.cpu.dcache.tags.occupanciesTaskId::1024         1024                       # Occupied blocks per task id (Count)
system.cpu.dcache.tags.ageTaskId_1024::0           90                       # Occupied blocks per task id, per block age (Count)
system.cpu.dcache.tags.ageTaskId_1024::1          743                       # Occupied blocks per task id, per block age (Count)
system.cpu.dcache.tags.ageTaskId_1024::2          191                       # Occupied blocks per task id, per block age (Count)
system.cpu.dcache.tags.ratioOccsTaskId::1024            1                       # Ratio of occupied blocks and all blocks, per task id (Ratio)
system.cpu.dcache.tags.tagAccesses            5465599                       # Number of tag accesses (Count)
system.cpu.dcache.tags.dataAccesses           5465599                       # Number of data accesses (Count)
system.cpu.dcache.tags.power_state.pwrStateResidencyTicks::UNDEFINED  54132707000                       # Cumulative time (in ticks) in various power states (Tick)
system.cpu.decode.idleCycles                   713397                       # Number of cycles decode is idle (Cycle)
system.cpu.decode.blockedCycles              51170908                       # Number of cycles decode is blocked (Cycle)
system.cpu.decode.runCycles                    363866                       # Number of cycles decode is running (Cycle)
system.cpu.decode.unblockCycles               1873494                       # Number of cycles decode is unblocking (Cycle)
system.cpu.decode.squashCycles                   1152                       # Number of cycles decode is squashing (Cycle)
system.cpu.decode.branchResolved              2270944                       # Number of times decode resolved a branch (Count)
system.cpu.decode.branchMispred                   224                       # Number of times decode detected a branch misprediction (Count)
system.cpu.decode.decodedInsts               17883316                       # Number of instructions handled by decode (Count)
system.cpu.decode.squashedInsts                  1000                       # Number of squashed instructions handled by decode (Count)
system.cpu.dtb_walker_cache.blockedCycles::no_mshrs            0                       # number of cycles access was blocked (Cycle)
system.cpu.dtb_walker_cache.blockedCycles::no_targets            0                       # number of cycles access was blocked (Cycle)
system.cpu.dtb_walker_cache.blockedCauses::no_mshrs            0                       # number of times access was blocked (Count)
system.cpu.dtb_walker_cache.blockedCauses::no_targets            0                       # number of times access was blocked (Count)
system.cpu.dtb_walker_cache.avgBlocked::no_mshrs          nan                       # average number of cycles each access was blocked ((Cycle/Count))
system.cpu.dtb_walker_cache.avgBlocked::no_targets          nan                       # average number of cycles each access was blocked ((Cycle/Count))
system.cpu.dtb_walker_cache.replacements            0                       # number of replacements (Count)
system.cpu.dtb_walker_cache.power_state.pwrStateResidencyTicks::UNDEFINED  54132707000                       # Cumulative time (in ticks) in various power states (Tick)
system.cpu.dtb_walker_cache.tags.tagsInUse            0                       # Average ticks per tags in use ((Tick/Count))
system.cpu.dtb_walker_cache.tags.totalRefs            0                       # Total number of references to valid blocks. (Count)
system.cpu.dtb_walker_cache.tags.sampledRefs            0                       # Sample count of references to valid blocks. (Count)
system.cpu.dtb_walker_cache.tags.avgRefs          nan                       # Average number of references to valid blocks. ((Count/Count))
system.cpu.dtb_walker_cache.tags.warmupTick            0                       # The tick when the warmup percentage was hit. (Tick)
system.cpu.dtb_walker_cache.tags.tagAccesses            0                       # Number of tag accesses (Count)
system.cpu.dtb_walker_cache.tags.dataAccesses            0                       # Number of data accesses (Count)
system.cpu.dtb_walker_cache.tags.power_state.pwrStateResidencyTicks::UNDEFINED  54132707000                       # Cumulative time (in ticks) in various power states (Tick)
system.cpu.fetch.icacheStallCycles             201786                       # Number of cycles fetch is stalled on an Icache miss (Cycle)
system.cpu.fetch.insts                       10061133                       # Number of instructions fetch has processed (Count)
system.cpu.fetch.branches                     2279541                       # Number of branches that fetch encountered (Count)
system.cpu.fetch.predictedBranches            2274000                       # Number of branches that fetch has predicted taken (Count)
system.cpu.fetch.cycles                      53919020                       # Number of cycles fetch has run and was not squashing or blocked (Cycle)
system.cpu.fetch.squashCycles                    2744                       # Number of cycles fetch has spent squashing (Cycle)
system.cpu.fetch.miscStallCycles                   75                       # Number of cycles fetch has spent waiting on interrupts, or bad addresses, or out of MSHRs (Cycle)
system.cpu.fetch.pendingTrapStallCycles           563                       # Number of stall cycles due to pending traps (Cycle)
system.cpu.fetch.pendingQuiesceStallCycles            1                       # Number of stall cycles due to pending quiesce instructions (Cycle)
system.cpu.fetch.cacheLines                    190692                       # Number of cache lines fetched (Count)
system.cpu.fetch.icacheSquashes                   364                       # Number of outstanding Icache misses that were squashed (Count)
system.cpu.fetch.nisnDist::samples           54122817                       # Number of instructions fetched each cycle (Total) (Count)
system.cpu.fetch.nisnDist::mean              0.330954                       # Number of instructions fetched each cycle (Total) (Count)
system.cpu.fetch.nisnDist::stdev             1.387014                       # Number of instructions fetched each cycle (Total) (Count)
system.cpu.fetch.nisnDist::underflows               0      0.00%      0.00% # Number of instructions fetched each cycle (Total) (Count)
system.cpu.fetch.nisnDist::0                 50625962     93.54%     93.54% # Number of instructions fetched each cycle (Total) (Count)
system.cpu.fetch.nisnDist::1                   386149      0.71%     94.25% # Number of instructions fetched each cycle (Total) (Count)
system.cpu.fetch.nisnDist::2                   318641      0.59%     94.84% # Number of instructions fetched each cycle (Total) (Count)
system.cpu.fetch.nisnDist::3                   307849      0.57%     95.41% # Number of instructions fetched each cycle (Total) (Count)
system.cpu.fetch.nisnDist::4                   245555      0.45%     95.86% # Number of instructions fetched each cycle (Total) (Count)
system.cpu.fetch.nisnDist::5                   256511      0.47%     96.34% # Number of instructions fetched each cycle (Total) (Count)
system.cpu.fetch.nisnDist::6                   385505      0.71%     97.05% # Number of instructions fetched each cycle (Total) (Count)
system.cpu.fetch.nisnDist::7                  1385765      2.56%     99.61% # Number of instructions fetched each cycle (Total) (Count)
system.cpu.fetch.nisnDist::8                   210880      0.39%    100.00% # Number of instructions fetched each cycle (Total) (Count)
system.cpu.fetch.nisnDist::overflows                0      0.00%    100.00% # Number of instructions fetched each cycle (Total) (Count)
system.cpu.fetch.nisnDist::min_value                0                       # Number of instructions fetched each cycle (Total) (Count)
system.cpu.fetch.nisnDist::max_value                8                       # Number of instructions fetched each cycle (Total) (Count)
system.cpu.fetch.nisnDist::total             54122817                       # Number of instructions fetched each cycle (Total) (Count)
system.cpu.fetch.branchRate                  0.042110                       # Number of branch fetches per cycle (Ratio)
system.cpu.fetch.rate                        0.185861                       # Number of inst fetches per cycle ((Count/Cycle))
system.cpu.icache.demandHits::cpu.inst         190106                       # number of demand (read+write) hits (Count)
system.cpu.icache.demandHits::total            190106                       # number of demand (read+write) hits (Count)
system.cpu.icache.overallHits::cpu.inst        190106                       # number of overall hits (Count)
system.cpu.icache.overallHits::total           190106                       # number of overall hits (Count)
system.cpu.icache.demandMisses::cpu.inst          586                       # number of demand (read+write) misses (Count)
system.cpu.icache.demandMisses::total             586                       # number of demand (read+write) misses (Count)
system.cpu.icache.overallMisses::cpu.inst          586                       # number of overall misses (Count)
system.cpu.icache.overallMisses::total            586                       # number of overall misses (Count)
system.cpu.icache.demandMissLatency::cpu.inst     34809000                       # number of demand (read+write) miss ticks (Tick)
system.cpu.icache.demandMissLatency::total     34809000                       # number of demand (read+write) miss ticks (Tick)
system.cpu.icache.overallMissLatency::cpu.inst     34809000                       # number of overall miss ticks (Tick)
system.cpu.icache.overallMissLatency::total     34809000                       # number of overall miss ticks (Tick)
system.cpu.icache.demandAccesses::cpu.inst       190692                       # number of demand (read+write) accesses (Count)
system.cpu.icache.demandAccesses::total        190692                       # number of demand (read+write) accesses (Count)
system.cpu.icache.overallAccesses::cpu.inst       190692                       # number of overall (read+write) accesses (Count)
system.cpu.icache.overallAccesses::total       190692                       # number of overall (read+write) accesses (Count)
system.cpu.icache.demandMissRate::cpu.inst     0.003073                       # miss rate for demand accesses (Ratio)
system.cpu.icache.demandMissRate::total      0.003073                       # miss rate for demand accesses (Ratio)
system.cpu.icache.overallMissRate::cpu.inst     0.003073                       # miss rate for overall accesses (Ratio)
system.cpu.icache.overallMissRate::total     0.003073                       # miss rate for overall accesses (Ratio)
system.cpu.icache.demandAvgMissLatency::cpu.inst 59401.023891                       # average overall miss latency ((Cycle/Count))
system.cpu.icache.demandAvgMissLatency::total 59401.023891                       # average overall miss latency ((Cycle/Count))
system.cpu.icache.overallAvgMissLatency::cpu.inst 59401.023891                       # average overall miss latency ((Cycle/Count))
system.cpu.icache.overallAvgMissLatency::total 59401.023891                       # average overall miss latency ((Cycle/Count))
system.cpu.icache.blockedCycles::no_mshrs            0                       # number of cycles access was blocked (Cycle)
system.cpu.icache.blockedCycles::no_targets            0                       # number of cycles access was blocked (Cycle)
system.cpu.icache.blockedCauses::no_mshrs            0                       # number of times access was blocked (Count)
system.cpu.icache.blockedCauses::no_targets            0                       # number of times access was blocked (Count)
system.cpu.icache.avgBlocked::no_mshrs            nan                       # average number of cycles each access was blocked ((Cycle/Count))
system.cpu.icache.avgBlocked::no_targets          nan                       # average number of cycles each access was blocked ((Cycle/Count))
system.cpu.icache.writebacks::writebacks           18                       # number of writebacks (Count)
system.cpu.icache.writebacks::total                18                       # number of writebacks (Count)
system.cpu.icache.demandMshrHits::cpu.inst          102                       # number of demand (read+write) MSHR hits (Count)
system.cpu.icache.demandMshrHits::total           102                       # number of demand (read+write) MSHR hits (Count)
system.cpu.icache.overallMshrHits::cpu.inst          102                       # number of overall MSHR hits (Count)
system.cpu.icache.overallMshrHits::total          102                       # number of overall MSHR hits (Count)
system.cpu.icache.demandMshrMisses::cpu.inst          484                       # number of demand (read+write) MSHR misses (Count)
system.cpu.icache.demandMshrMisses::total          484                       # number of demand (read+write) MSHR misses (Count)
system.cpu.icache.overallMshrMisses::cpu.inst          484                       # number of overall MSHR misses (Count)
system.cpu.icache.overallMshrMisses::total          484                       # number of overall MSHR misses (Count)
system.cpu.icache.demandMshrMissLatency::cpu.inst     29974000                       # number of demand (read+write) MSHR miss ticks (Tick)
system.cpu.icache.demandMshrMissLatency::total     29974000                       # number of demand (read+write) MSHR miss ticks (Tick)
system.cpu.icache.overallMshrMissLatency::cpu.inst     29974000                       # number of overall MSHR miss ticks (Tick)
system.cpu.icache.overallMshrMissLatency::total     29974000                       # number of overall MSHR miss ticks (Tick)
system.cpu.icache.demandMshrMissRate::cpu.inst     0.002538                       # mshr miss ratio for demand accesses (Ratio)
system.cpu.icache.demandMshrMissRate::total     0.002538                       # mshr miss ratio for demand accesses (Ratio)
system.cpu.icache.overallMshrMissRate::cpu.inst     0.002538                       # mshr miss ratio for overall accesses (Ratio)
system.cpu.icache.overallMshrMissRate::total     0.002538                       # mshr miss ratio for overall accesses (Ratio)
system.cpu.icache.demandAvgMshrMissLatency::cpu.inst 61929.752066                       # average overall mshr miss latency ((Cycle/Count))
system.cpu.icache.demandAvgMshrMissLatency::total 61929.752066                       # average overall mshr miss latency ((Cycle/Count))
system.cpu.icache.overallAvgMshrMissLatency::cpu.inst 61929.752066                       # average overall mshr miss latency ((Cycle/Count))
system.cpu.icache.overallAvgMshrMissLatency::total 61929.752066                       # average overall mshr miss latency ((Cycle/Count))
system.cpu.icache.replacements                     18                       # number of replacements (Count)
system.cpu.icache.ReadReq.hits::cpu.inst       190106                       # number of ReadReq hits (Count)
system.cpu.icache.ReadReq.hits::total          190106                       # number of ReadReq hits (Count)
system.cpu.icache.ReadReq.misses::cpu.inst          586                       # number of ReadReq misses (Count)
system.cpu.icache.ReadReq.misses::total           586                       # number of ReadReq misses (Count)
system.cpu.icache.ReadReq.missLatency::cpu.inst     34809000                       # number of ReadReq miss ticks (Tick)
system.cpu.icache.ReadReq.missLatency::total     34809000                       # number of ReadReq miss ticks (Tick)
system.cpu.icache.ReadReq.accesses::cpu.inst       190692                       # number of ReadReq accesses(hits+misses) (Count)
system.cpu.icache.ReadReq.accesses::total       190692                       # number of ReadReq accesses(hits+misses) (Count)
system.cpu.icache.ReadReq.missRate::cpu.inst     0.003073                       # miss rate for ReadReq accesses (Ratio)
system.cpu.icache.ReadReq.missRate::total     0.003073                       # miss rate for ReadReq accesses (Ratio)
system.cpu.icache.ReadReq.avgMissLatency::cpu.inst 59401.023891                       # average ReadReq miss latency ((Tick/Count))
system.cpu.icache.ReadReq.avgMissLatency::total 59401.023891                       # average ReadReq miss latency ((Tick/Count))
system.cpu.icache.ReadReq.mshrHits::cpu.inst          102                       # number of ReadReq MSHR hits (Count)
system.cpu.icache.ReadReq.mshrHits::total          102                       # number of ReadReq MSHR hits (Count)
system.cpu.icache.ReadReq.mshrMisses::cpu.inst          484                       # number of ReadReq MSHR misses (Count)
system.cpu.icache.ReadReq.mshrMisses::total          484                       # number of ReadReq MSHR misses (Count)
system.cpu.icache.ReadReq.mshrMissLatency::cpu.inst     29974000                       # number of ReadReq MSHR miss ticks (Tick)
system.cpu.icache.ReadReq.mshrMissLatency::total     29974000                       # number of ReadReq MSHR miss ticks (Tick)
system.cpu.icache.ReadReq.mshrMissRate::cpu.inst     0.002538                       # mshr miss rate for ReadReq accesses (Ratio)
system.cpu.icache.ReadReq.mshrMissRate::total     0.002538                       # mshr miss rate for ReadReq accesses (Ratio)
system.cpu.icache.ReadReq.avgMshrMissLatency::cpu.inst 61929.752066                       # average ReadReq mshr miss latency ((Tick/Count))
system.cpu.icache.ReadReq.avgMshrMissLatency::total 61929.752066                       # average ReadReq mshr miss latency ((Tick/Count))
system.cpu.icache.power_state.pwrStateResidencyTicks::UNDEFINED  54132707000                       # Cumulative time (in ticks) in various power states (Tick)
system.cpu.icache.tags.tagsInUse           424.870271                       # Average ticks per tags in use ((Tick/Count))
system.cpu.icache.tags.totalRefs               190589                       # Total number of references to valid blocks. (Count)
system.cpu.icache.tags.sampledRefs                483                       # Sample count of references to valid blocks. (Count)
system.cpu.icache.tags.avgRefs             394.594203                       # Average number of references to valid blocks. ((Count/Count))
system.cpu.icache.tags.warmupTick               77000                       # The tick when the warmup percentage was hit. (Tick)
system.cpu.icache.tags.occupancies::cpu.inst   424.870271                       # Average occupied blocks per tick, per requestor ((Count/Tick))
system.cpu.icache.tags.avgOccs::cpu.inst     0.414912                       # Average percentage of cache occupancy ((Ratio/Tick))
system.cpu.icache.tags.avgOccs::total        0.414912                       # Average percentage of cache occupancy ((Ratio/Tick))
system.cpu.icache.tags.occupanciesTaskId::1024          465                       # Occupied blocks per task id (Count)
system.cpu.icache.tags.ageTaskId_1024::0           42                       # Occupied blocks per task id, per block age (Count)
system.cpu.icache.tags.ageTaskId_1024::3            1                       # Occupied blocks per task id, per block age (Count)
system.cpu.icache.tags.ageTaskId_1024::4          422                       # Occupied blocks per task id, per block age (Count)
system.cpu.icache.tags.ratioOccsTaskId::1024     0.454102                       # Ratio of occupied blocks and all blocks, per task id (Ratio)
system.cpu.icache.tags.tagAccesses             381867                       # Number of tag accesses (Count)
system.cpu.icache.tags.dataAccesses            381867                       # Number of data accesses (Count)
system.cpu.icache.tags.power_state.pwrStateResidencyTicks::UNDEFINED  54132707000                       # Cumulative time (in ticks) in various power states (Tick)
system.cpu.iew.idleCycles                           0                       # Number of cycles IEW is idle (Cycle)
system.cpu.iew.squashCycles                      1152                       # Number of cycles IEW is squashing (Cycle)
system.cpu.iew.blockCycles                     606140                       # Number of cycles IEW is blocking (Cycle)
system.cpu.iew.unblockCycles                 18198124                       # Number of cycles IEW is unblocking (Cycle)
system.cpu.iew.dispatchedInsts               17873443                       # Number of instructions dispatched to IQ (Count)
system.cpu.iew.dispSquashedInsts                   12                       # Number of squashed instructions skipped by dispatch (Count)
system.cpu.iew.dispLoadInsts                   130433                       # Number of dispatched load instructions (Count)
system.cpu.iew.dispStoreInsts                 2207881                       # Number of dispatched store instructions (Count)
system.cpu.iew.dispNonSpecInsts                    12                       # Number of dispatched non-speculative instructions (Count)
system.cpu.iew.iqFullEvents                        17                       # Number of times the IQ has become full, causing a stall (Count)
system.cpu.iew.lsqFullEvents                 18182594                       # Number of times the LSQ has become full, causing a stall (Count)
system.cpu.iew.memOrderViolationEvents              5                       # Number of memory order violations (Count)
system.cpu.iew.predictedTakenIncorrect            352                       # Number of branches that were predicted taken incorrectly (Count)
system.cpu.iew.predictedNotTakenIncorrect          622                       # Number of branches that were predicted not taken incorrectly (Count)
system.cpu.iew.branchMispredicts                  974                       # Number of branch mispredicts detected at execute (Count)
system.cpu.iew.instsToCommit                 17843959                       # Cumulative count of insts sent to commit (Count)
system.cpu.iew.writebackCount                17839617                       # Cumulative count of insts written-back (Count)
system.cpu.iew.producerInst                  12330284                       # Number of instructions producing a value (Count)
system.cpu.iew.consumerInst                  20995041                       # Number of instructions consuming a value (Count)
system.cpu.iew.wbRate                        0.329553                       # Insts written-back per cycle ((Count/Cycle))
system.cpu.iew.wbFanout                      0.587295                       # Average fanout of values written-back ((Count/Count))
system.cpu.interrupts.clk_domain.clock          16000                       # Clock period in ticks (Tick)
system.cpu.itb_walker_cache.blockedCycles::no_mshrs            0                       # number of cycles access was blocked (Cycle)
system.cpu.itb_walker_cache.blockedCycles::no_targets            0                       # number of cycles access was blocked (Cycle)
system.cpu.itb_walker_cache.blockedCauses::no_mshrs            0                       # number of times access was blocked (Count)
system.cpu.itb_walker_cache.blockedCauses::no_targets            0                       # number of times access was blocked (Count)
system.cpu.itb_walker_cache.avgBlocked::no_mshrs          nan                       # average number of cycles each access was blocked ((Cycle/Count))
system.cpu.itb_walker_cache.avgBlocked::no_targets          nan                       # average number of cycles each access was blocked ((Cycle/Count))
system.cpu.itb_walker_cache.replacements            0                       # number of replacements (Count)
system.cpu.itb_walker_cache.power_state.pwrStateResidencyTicks::UNDEFINED  54132707000                       # Cumulative time (in ticks) in various power states (Tick)
system.cpu.itb_walker_cache.tags.tagsInUse            0                       # Average ticks per tags in use ((Tick/Count))
system.cpu.itb_walker_cache.tags.totalRefs            0                       # Total number of references to valid blocks. (Count)
system.cpu.itb_walker_cache.tags.sampledRefs            0                       # Sample count of references to valid blocks. (Count)
system.cpu.itb_walker_cache.tags.avgRefs          nan                       # Average number of references to valid blocks. ((Count/Count))
system.cpu.itb_walker_cache.tags.warmupTick            0                       # The tick when the warmup percentage was hit. (Tick)
system.cpu.itb_walker_cache.tags.tagAccesses            0                       # Number of tag accesses (Count)
system.cpu.itb_walker_cache.tags.dataAccesses            0                       # Number of data accesses (Count)
system.cpu.itb_walker_cache.tags.power_state.pwrStateResidencyTicks::UNDEFINED  54132707000                       # Cumulative time (in ticks) in various power states (Tick)
system.cpu.lsq0.forwLoads                          73                       # Number of loads that had data forwarded from stores (Count)
system.cpu.lsq0.squashedLoads                    2888                       # Number of loads squashed (Count)
system.cpu.lsq0.ignoredResponses                    0                       # Number of memory responses ignored because the instruction is squashed (Count)
system.cpu.lsq0.memOrderViolation                   5                       # Number of memory ordering violations (Count)
system.cpu.lsq0.squashedStores                   8407                       # Number of stores squashed (Count)
system.cpu.lsq0.rescheduledLoads                    0                       # Number of loads that were rescheduled (Count)
system.cpu.lsq0.blockedByCache                     13                       # Number of times an access to memory failed due to the cache being blocked (Count)
system.cpu.lsq0.loadToUse::samples             127545                       # Distribution of cycle latency between the first time a load is issued and its completion (Unspecified)
system.cpu.lsq0.loadToUse::mean             33.318335                       # Distribution of cycle latency between the first time a load is issued and its completion (Unspecified)
system.cpu.lsq0.loadToUse::stdev            31.526381                       # Distribution of cycle latency between the first time a load is issued and its completion (Unspecified)
system.cpu.lsq0.loadToUse::0-9                  48621     38.12%     38.12% # Distribution of cycle latency between the first time a load is issued and its completion (Unspecified)
system.cpu.lsq0.loadToUse::10-19                   82      0.06%     38.18% # Distribution of cycle latency between the first time a load is issued and its completion (Unspecified)
system.cpu.lsq0.loadToUse::20-29                   56      0.04%     38.23% # Distribution of cycle latency between the first time a load is issued and its completion (Unspecified)
system.cpu.lsq0.loadToUse::30-39                   51      0.04%     38.27% # Distribution of cycle latency between the first time a load is issued and its completion (Unspecified)
system.cpu.lsq0.loadToUse::40-49                57564     45.13%     83.40% # Distribution of cycle latency between the first time a load is issued and its completion (Unspecified)
system.cpu.lsq0.loadToUse::50-59                16421     12.87%     96.28% # Distribution of cycle latency between the first time a load is issued and its completion (Unspecified)
system.cpu.lsq0.loadToUse::60-69                 2957      2.32%     98.59% # Distribution of cycle latency between the first time a load is issued and its completion (Unspecified)
system.cpu.lsq0.loadToUse::70-79                  115      0.09%     98.68% # Distribution of cycle latency between the first time a load is issued and its completion (Unspecified)
system.cpu.lsq0.loadToUse::80-89                  121      0.09%     98.78% # Distribution of cycle latency between the first time a load is issued and its completion (Unspecified)
system.cpu.lsq0.loadToUse::90-99                   20      0.02%     98.79% # Distribution of cycle latency between the first time a load is issued and its completion (Unspecified)
system.cpu.lsq0.loadToUse::100-109                 76      0.06%     98.85% # Distribution of cycle latency between the first time a load is issued and its completion (Unspecified)
system.cpu.lsq0.loadToUse::110-119                 88      0.07%     98.92% # Distribution of cycle latency between the first time a load is issued and its completion (Unspecified)
system.cpu.lsq0.loadToUse::120-129                 61      0.05%     98.97% # Distribution of cycle latency between the first time a load is issued and its completion (Unspecified)
[...]
system.mem_ctrls.dram.bwWrite::total        901776739                       # Write bandwidth from this memory ((Byte/Second))
system.mem_ctrls.dram.bwTotal::writebacks    901776739                       # Total bandwidth to/from this memory ((Byte/Second))
system.mem_ctrls.dram.bwTotal::cpu.inst        571041                       # Total bandwidth to/from this memory ((Byte/Second))
system.mem_ctrls.dram.bwTotal::cpu.data     920540700                       # Total bandwidth to/from this memory ((Byte/Second))
system.mem_ctrls.dram.bwTotal::total       1822888480                       # Total bandwidth to/from this memory ((Byte/Second))
system.mem_ctrls.dram.readBursts               779049                       # Number of DRAM read bursts (Count)
system.mem_ctrls.dram.writeBursts              762744                       # Number of DRAM write bursts (Count)
system.mem_ctrls.dram.perBankRdBursts::0        44747                       # Per bank write bursts (Count)
system.mem_ctrls.dram.perBankRdBursts::1        44799                       # Per bank write bursts (Count)
system.mem_ctrls.dram.perBankRdBursts::2        44682                       # Per bank write bursts (Count)
system.mem_ctrls.dram.perBankRdBursts::3        44685                       # Per bank write bursts (Count)
system.mem_ctrls.dram.perBankRdBursts::4        50884                       # Per bank write bursts (Count)
system.mem_ctrls.dram.perBankRdBursts::5        51025                       # Per bank write bursts (Count)
system.mem_ctrls.dram.perBankRdBursts::6        51053                       # Per bank write bursts (Count)
system.mem_ctrls.dram.perBankRdBursts::7        51032                       # Per bank write bursts (Count)
system.mem_ctrls.dram.perBankRdBursts::8        51074                       # Per bank write bursts (Count)
system.mem_ctrls.dram.perBankRdBursts::9        51017                       # Per bank write bursts (Count)
system.mem_ctrls.dram.perBankRdBursts::10        51018                       # Per bank write bursts (Count)
system.mem_ctrls.dram.perBankRdBursts::11        51045                       # Per bank write bursts (Count)
system.mem_ctrls.dram.perBankRdBursts::12        51043                       # Per bank write bursts (Count)
system.mem_ctrls.dram.perBankRdBursts::13        51018                       # Per bank write bursts (Count)
system.mem_ctrls.dram.perBankRdBursts::14        45211                       # Per bank write bursts (Count)
system.mem_ctrls.dram.perBankRdBursts::15        44716                       # Per bank write bursts (Count)
system.mem_ctrls.dram.perBankWrBursts::0        43774                       # Per bank write bursts (Count)
system.mem_ctrls.dram.perBankWrBursts::1        43836                       # Per bank write bursts (Count)
system.mem_ctrls.dram.perBankWrBursts::2        43778                       # Per bank write bursts (Count)
system.mem_ctrls.dram.perBankWrBursts::3        43787                       # Per bank write bursts (Count)
system.mem_ctrls.dram.perBankWrBursts::4        49701                       # Per bank write bursts (Count)
system.mem_ctrls.dram.perBankWrBursts::5        49989                       # Per bank write bursts (Count)
system.mem_ctrls.dram.perBankWrBursts::6        49973                       # Per bank write bursts (Count)
system.mem_ctrls.dram.perBankWrBursts::7        49984                       # Per bank write bursts (Count)
system.mem_ctrls.dram.perBankWrBursts::8        50033                       # Per bank write bursts (Count)
system.mem_ctrls.dram.perBankWrBursts::9        49979                       # Per bank write bursts (Count)
system.mem_ctrls.dram.perBankWrBursts::10        49988                       # Per bank write bursts (Count)
system.mem_ctrls.dram.perBankWrBursts::11        49990                       # Per bank write bursts (Count)
system.mem_ctrls.dram.perBankWrBursts::12        49971                       # Per bank write bursts (Count)
system.mem_ctrls.dram.perBankWrBursts::13        49974                       # Per bank write bursts (Count)
system.mem_ctrls.dram.perBankWrBursts::14        44231                       # Per bank write bursts (Count)
system.mem_ctrls.dram.perBankWrBursts::15        43756                       # Per bank write bursts (Count)
system.mem_ctrls.dram.totQLat              7294295500                       # Total ticks spent queuing (Tick)
system.mem_ctrls.dram.totBusLat            3895245000                       # Total ticks spent in databus transfers (Tick)
system.mem_ctrls.dram.totMemAccLat        21901464250                       # Total ticks spent from burst creation until serviced by the DRAM (Tick)
system.mem_ctrls.dram.avgQLat                 9363.08                       # Average queueing delay per DRAM burst ((Tick/Count))
system.mem_ctrls.dram.avgBusLat               5000.00                       # Average bus latency per DRAM burst ((Tick/Count))
system.mem_ctrls.dram.avgMemAccLat           28113.08                       # Average memory access latency per DRAM burst ((Tick/Count))
system.mem_ctrls.dram.readRowHits              714464                       # Number of row buffer hits during reads (Count)
system.mem_ctrls.dram.writeRowHits             654566                       # Number of row buffer hits during writes (Count)
system.mem_ctrls.dram.readRowHitRate            91.71                       # Row buffer hit rate for reads (Ratio)
system.mem_ctrls.dram.writeRowHitRate           85.82                       # Row buffer hit rate for writes (Ratio)
system.mem_ctrls.dram.bytesPerActivate::samples       172753                       # Bytes accessed per row activation (Byte)
system.mem_ctrls.dram.bytesPerActivate::mean   571.176095                       # Bytes accessed per row activation (Byte)
system.mem_ctrls.dram.bytesPerActivate::gmean   385.929831                       # Bytes accessed per row activation (Byte)
system.mem_ctrls.dram.bytesPerActivate::stdev   391.908726                       # Bytes accessed per row activation (Byte)
system.mem_ctrls.dram.bytesPerActivate::0-127        25343     14.67%     14.67% # Bytes accessed per row activation (Byte)
system.mem_ctrls.dram.bytesPerActivate::128-255        28604     16.56%     31.23% # Bytes accessed per row activation (Byte)
system.mem_ctrls.dram.bytesPerActivate::256-383        15852      9.18%     40.40% # Bytes accessed per row activation (Byte)
system.mem_ctrls.dram.bytesPerActivate::384-511        11586      6.71%     47.11% # Bytes accessed per row activation (Byte)
system.mem_ctrls.dram.bytesPerActivate::512-639         9980      5.78%     52.89% # Bytes accessed per row activation (Byte)
system.mem_ctrls.dram.bytesPerActivate::640-767         9040      5.23%     58.12% # Bytes accessed per row activation (Byte)
system.mem_ctrls.dram.bytesPerActivate::768-895         7263      4.20%     62.32% # Bytes accessed per row activation (Byte)
system.mem_ctrls.dram.bytesPerActivate::896-1023         5799      3.36%     65.68% # Bytes accessed per row activation (Byte)
system.mem_ctrls.dram.bytesPerActivate::1024-1151        59286     34.32%    100.00% # Bytes accessed per row activation (Byte)
system.mem_ctrls.dram.bytesPerActivate::total       172753                       # Bytes accessed per row activation (Byte)
system.mem_ctrls.dram.bytesRead              49859136                       # Total bytes read (Byte)
system.mem_ctrls.dram.bytesWritten           48815616                       # Total bytes written (Byte)
system.mem_ctrls.dram.avgRdBW              921.053809                       # Average DRAM read bandwidth in MiBytes/s ((Byte/Second))
system.mem_ctrls.dram.avgWrBW              901.776739                       # Average DRAM write bandwidth in MiBytes/s ((Byte/Second))
system.mem_ctrls.dram.peakBW                 12800.00                       # Theoretical peak bandwidth in MiByte/s ((Byte/Second))
system.mem_ctrls.dram.busUtil                   14.24                       # Data bus utilization in percentage (Ratio)
system.mem_ctrls.dram.busUtilRead                7.20                       # Data bus utilization in percentage for reads (Ratio)
system.mem_ctrls.dram.busUtilWrite               7.05                       # Data bus utilization in percentage for writes (Ratio)
system.mem_ctrls.dram.pageHitRate               88.79                       # Row buffer hit rate, read and write combined (Ratio)
system.mem_ctrls.dram.power_state.pwrStateResidencyTicks::UNDEFINED  54132707000                       # Cumulative time (in ticks) in various power states (Tick)
system.mem_ctrls.dram.rank0.actEnergy       603779820                       # Energy for activate commands per rank (pJ) (Joule)
system.mem_ctrls.dram.rank0.preEnergy       320901405                       # Energy for precharge commands per rank (pJ) (Joule)
system.mem_ctrls.dram.rank0.readEnergy     2733955980                       # Energy for read commands per rank (pJ) (Joule)
system.mem_ctrls.dram.rank0.writeEnergy    1956570840                       # Energy for write commands per rank (pJ) (Joule)
system.mem_ctrls.dram.rank0.refreshEnergy 4272977280.000000                       # Energy for refresh commands per rank (pJ) (Joule)
system.mem_ctrls.dram.rank0.actBackEnergy  20827606200                       # Energy for active background per rank (pJ) (Joule)
system.mem_ctrls.dram.rank0.preBackEnergy   3247922880                       # Energy for precharge background per rank (pJ) (Joule)
system.mem_ctrls.dram.rank0.actPowerDownEnergy            0                       # Energy for active power-down per rank (pJ) (Joule)
system.mem_ctrls.dram.rank0.prePowerDownEnergy            0                       # Energy for precharge power-down per rank (pJ) (Joule)
system.mem_ctrls.dram.rank0.selfRefreshEnergy            0                       # Energy for self refresh per rank (pJ) (Joule)
system.mem_ctrls.dram.rank0.totalEnergy   33963714405                       # Total energy per rank (pJ) (Joule)
system.mem_ctrls.dram.rank0.averagePower   627.415777                       # Core power per rank (mW) (Watt)
system.mem_ctrls.dram.rank0.totalIdleTime            0                       # Total Idle time Per DRAM Rank (Tick)
system.mem_ctrls.dram.rank0.pwrStateTime::IDLE   8109970000                       # Time in different power states (Tick)
system.mem_ctrls.dram.rank0.pwrStateTime::REF   1807520000                       # Time in different power states (Tick)
system.mem_ctrls.dram.rank0.pwrStateTime::SREF            0                       # Time in different power states (Tick)
system.mem_ctrls.dram.rank0.pwrStateTime::PRE_PDN            0                       # Time in different power states (Tick)
system.mem_ctrls.dram.rank0.pwrStateTime::ACT  44215217000                       # Time in different power states (Tick)
system.mem_ctrls.dram.rank0.pwrStateTime::ACT_PDN            0                       # Time in different power states (Tick)
system.mem_ctrls.dram.rank1.actEnergy       629748000                       # Energy for activate commands per rank (pJ) (Joule)
system.mem_ctrls.dram.rank1.preEnergy       334696230                       # Energy for precharge commands per rank (pJ) (Joule)
system.mem_ctrls.dram.rank1.readEnergy     2828453880                       # Energy for read commands per rank (pJ) (Joule)
system.mem_ctrls.dram.rank1.writeEnergy    2024952840                       # Energy for write commands per rank (pJ) (Joule)
system.mem_ctrls.dram.rank1.refreshEnergy 4272977280.000000                       # Energy for refresh commands per rank (pJ) (Joule)
system.mem_ctrls.dram.rank1.actBackEnergy  20957175180                       # Energy for active background per rank (pJ) (Joule)
system.mem_ctrls.dram.rank1.preBackEnergy   3138812160                       # Energy for precharge background per rank (pJ) (Joule)
system.mem_ctrls.dram.rank1.actPowerDownEnergy            0                       # Energy for active power-down per rank (pJ) (Joule)
system.mem_ctrls.dram.rank1.prePowerDownEnergy            0                       # Energy for precharge power-down per rank (pJ) (Joule)
system.mem_ctrls.dram.rank1.selfRefreshEnergy            0                       # Energy for self refresh per rank (pJ) (Joule)
system.mem_ctrls.dram.rank1.totalEnergy   34186815570                       # Total energy per rank (pJ) (Joule)
system.mem_ctrls.dram.rank1.averagePower   631.537151                       # Core power per rank (mW) (Watt)
system.mem_ctrls.dram.rank1.totalIdleTime            0                       # Total Idle time Per DRAM Rank (Tick)
system.mem_ctrls.dram.rank1.pwrStateTime::IDLE   7822567250                       # Time in different power states (Tick)
system.mem_ctrls.dram.rank1.pwrStateTime::REF   1807520000                       # Time in different power states (Tick)
system.mem_ctrls.dram.rank1.pwrStateTime::SREF            0                       # Time in different power states (Tick)
system.mem_ctrls.dram.rank1.pwrStateTime::PRE_PDN            0                       # Time in different power states (Tick)
system.mem_ctrls.dram.rank1.pwrStateTime::ACT  44502619750                       # Time in different power states (Tick)
system.mem_ctrls.dram.rank1.pwrStateTime::ACT_PDN            0                       # Time in different power states (Tick)
system.mem_ctrls.power_state.pwrStateResidencyTicks::UNDEFINED  54132707000                       # Cumulative time (in ticks) in various power states (Tick)
system.membus.transDist::ReadResp               16389                       # Transaction distribution (Count)
system.membus.transDist::WritebackDirty        762744                       # Transaction distribution (Count)
system.membus.transDist::WritebackClean            18                       # Transaction distribution (Count)
system.membus.transDist::CleanEvict             14847                       # Transaction distribution (Count)
system.membus.transDist::ReadExReq             762709                       # Transaction distribution (Count)
system.membus.transDist::ReadExResp            762709                       # Transaction distribution (Count)
system.membus.transDist::ReadCleanReq             484                       # Transaction distribution (Count)
system.membus.transDist::ReadSharedReq          15906                       # Transaction distribution (Count)
system.membus.pktCount_system.cpu.icache.mem_side_port::system.mem_ctrls.port          985                       # Packet count per connected requestor and responder (Count)
system.membus.pktCount_system.cpu.icache.mem_side_port::total          985                       # Packet count per connected requestor and responder (Count)
system.membus.pktCount_system.cpu.dcache.mem_side_port::system.mem_ctrls.port      2334821                       # Packet count per connected requestor and responder (Count)
system.membus.pktCount_system.cpu.dcache.mem_side_port::total      2334821                       # Packet count per connected requestor and responder (Count)
system.membus.pktCount::total                 2335806                       # Packet count per connected requestor and responder (Count)
system.membus.pktSize_system.cpu.icache.mem_side_port::system.mem_ctrls.port        32064                       # Cumulative packet size per connected requestor and responder (Byte)
system.membus.pktSize_system.cpu.icache.mem_side_port::total        32064                       # Cumulative packet size per connected requestor and responder (Byte)
system.membus.pktSize_system.cpu.dcache.mem_side_port::system.mem_ctrls.port     98646976                       # Cumulative packet size per connected requestor and responder (Byte)
system.membus.pktSize_system.cpu.dcache.mem_side_port::total     98646976                       # Cumulative packet size per connected requestor and responder (Byte)
system.membus.pktSize::total                 98679040                       # Cumulative packet size per connected requestor and responder (Byte)
system.membus.snoops                                0                       # Total snoops (Count)
system.membus.snoopTraffic                          0                       # Total snoop traffic (Byte)
system.membus.snoopFanout::samples             779099                       # Request fanout histogram (Count)
system.membus.snoopFanout::mean                     0                       # Request fanout histogram (Count)
system.membus.snoopFanout::stdev                    0                       # Request fanout histogram (Count)
system.membus.snoopFanout::underflows               0      0.00%      0.00% # Request fanout histogram (Count)
system.membus.snoopFanout::0                   779099    100.00%    100.00% # Request fanout histogram (Count)
system.membus.snoopFanout::1                        0      0.00%    100.00% # Request fanout histogram (Count)
system.membus.snoopFanout::2                        0      0.00%    100.00% # Request fanout histogram (Count)
system.membus.snoopFanout::3                        0      0.00%    100.00% # Request fanout histogram (Count)
system.membus.snoopFanout::4                        0      0.00%    100.00% # Request fanout histogram (Count)
system.membus.snoopFanout::overflows                0      0.00%    100.00% # Request fanout histogram (Count)
system.membus.snoopFanout::min_value                0                       # Request fanout histogram (Count)
system.membus.snoopFanout::max_value                0                       # Request fanout histogram (Count)
system.membus.snoopFanout::total               779099                       # Request fanout histogram (Count)
system.membus.power_state.pwrStateResidencyTicks::UNDEFINED  54132707000                       # Cumulative time (in ticks) in various power states (Tick)
system.membus.reqLayer2.occupancy          4607756000                       # Layer occupancy (ticks) (Tick)
system.membus.reqLayer2.utilization               0.1                       # Layer utilization (Ratio)
system.membus.respLayer1.occupancy            2575500                       # Layer occupancy (ticks) (Tick)
system.membus.respLayer1.utilization              0.0                       # Layer utilization (Ratio)
system.membus.respLayer2.occupancy         4104993000                       # Layer occupancy (ticks) (Tick)
system.membus.respLayer2.utilization              0.1                       # Layer utilization (Ratio)
system.membus.snoop_filter.totRequests        1556708                       # Total number of requests made to the snoop filter. (Count)
system.membus.snoop_filter.hitSingleRequests       777609                       # Number of requests hitting in the snoop filter with a single holder of the requested data. (Count)
system.membus.snoop_filter.hitMultiRequests            0                       # Number of requests hitting in the snoop filter with multiple (>1) holders of the requested data. (Count)
system.membus.snoop_filter.totSnoops                0                       # Total number of snoops made to the snoop filter. (Count)
system.membus.snoop_filter.hitSingleSnoops            0                       # Number of snoops hitting in the snoop filter with a single holder of the requested data. (Count)
system.membus.snoop_filter.hitMultiSnoops            0                       # Number of snoops hitting in the snoop filter with multiple (>1) holders of the requested data. (Count)
system.voltage_domain.voltage                       1                       # Voltage in Volts (Volt)
system.workload.inst.arm                            0                       # number of arm instructions executed (Count)
system.workload.inst.quiesce                        0                       # number of quiesce instructions executed (Count)

---------- End Simulation Statistics   ----------
